<routes>
  <vType id="car" accel="1.0" decel="4.5" maxSpeed="25" length="5"/>
  <route id="r0" edges="-west east"/>
  <vehicle id="veh0" type="car" route="r0" depart="0.0"/>
  <route id="r1" edges="-south north"/>
  <vehicle id="veh1" type="car" route="r1" depart="1.0"/>
  <route id="r2" edges="-north west"/>
  <vehicle id="veh2" type="car" route="r2" depart="2.0"/>
  <route id="r3" edges="-north south"/>
  <vehicle id="veh3" type="car" route="r3" depart="3.0"/>
  <route id="r4" edges="-east west"/>
  <vehicle id="veh4" type="car" route="r4" depart="4.0"/>
  <route id="r5" edges="-south west"/>
  <vehicle id="veh5" type="car" route="r5" depart="5.0"/>
  <route id="r6" edges="-east south"/>
  <vehicle id="veh6" type="car" route="r6" depart="6.0"/>
  <route id="r7" edges="-south east"/>
  <vehicle id="veh7" type="car" route="r7" depart="7.0"/>
  <route id="r8" edges="-east north"/>
  <vehicle id="veh8" type="car" route="r8" depart="8.0"/>
  <route id="r9" edges="-west north"/>
  <vehicle id="veh9" type="car" route="r9" depart="9.0"/>
  <route id="r10" edges="-north south"/>
  <vehicle id="veh10" type="car" route="r10" depart="10.0"/>
  <route id="r11" edges="-south east"/>
  <vehicle id="veh11" type="car" route="r11" depart="11.0"/>
  <route id="r12" edges="-west east"/>
  <vehicle id="veh12" type="car" route="r12" depart="12.0"/>
  <route id="r13" edges="-south east"/>
  <vehicle id="veh13" type="car" route="r13" depart="13.0"/>
  <route id="r14" edges="-west north"/>
  <vehicle id="veh14" type="car" route="r14" depart="14.0"/>
  <route id="r15" edges="-south west"/>
  <vehicle id="veh15" type="car" route="r15" depart="15.0"/>
  <route id="r16" edges="-west north"/>
  <vehicle id="veh16" type="car" route="r16" depart="16.0"/>
  <route id="r17" edges="-north south"/>
  <vehicle id="veh17" type="car" route="r17" depart="17.0"/>
  <route id="r18" edges="-west east"/>
  <vehicle id="veh18" type="car" route="r18" depart="18.0"/>
  <route id="r19" edges="-north west"/>
  <vehicle id="veh19" type="car" route="r19" depart="19.0"/>
  <route id="r20" edges="-north east"/>
  <vehicle id="veh20" type="car" route="r20" depart="20.0"/>
  <route id="r21" edges="-south west"/>
  <vehicle id="veh21" type="car" route="r21" depart="21.0"/>
  <route id="r22" edges="-west east"/>
  <vehicle id="veh22" type="car" route="r22" depart="22.0"/>
  <route id="r23" edges="-west east"/>
  <vehicle id="veh23" type="car" route="r23" depart="23.0"/>
  <route id="r24" edges="-west north"/>
  <vehicle id="veh24" type="car" route="r24" depart="24.0"/>
  <route id="r25" edges="-north west"/>
  <vehicle id="veh25" type="car" route="r25" depart="25.0"/>
  <route id="r26" edges="-east south"/>
  <vehicle id="veh26" type="car" route="r26" depart="26.0"/>
  <route id="r27" edges="-north east"/>
  <vehicle id="veh27" type="car" route="r27" depart="27.0"/>
  <route id="r28" edges="-south east"/>
  <vehicle id="veh28" type="car" route="r28" depart="28.0"/>
  <route id="r29" edges="-west east"/>
  <vehicle id="veh29" type="car" route="r29" depart="29.0"/>
  <route id="r30" edges="-north west"/>
  <vehicle id="veh30" type="car" route="r30" depart="30.0"/>
  <route id="r31" edges="-north west"/>
  <vehicle id="veh31" type="car" route="r31" depart="31.0"/>
  <route id="r32" edges="-north west"/>
  <vehicle id="veh32" type="car" route="r32" depart="32.0"/>
  <route id="r33" edges="-south north"/>
  <vehicle id="veh33" type="car" route="r33" depart="33.0"/>
  <route id="r34" edges="-south east"/>
  <vehicle id="veh34" type="car" route="r34" depart="34.0"/>
  <route id="r35" edges="-west east"/>
  <vehicle id="veh35" type="car" route="r35" depart="35.0"/>
  <route id="r36" edges="-south west"/>
  <vehicle id="veh36" type="car" route="r36" depart="36.0"/>
  <route id="r37" edges="-west east"/>
  <vehicle id="veh37" type="car" route="r37" depart="37.0"/>
  <route id="r38" edges="-west south"/>
  <vehicle id="veh38" type="car" route="r38" depart="38.0"/>
  <route id="r39" edges="-south north"/>
  <vehicle id="veh39" type="car" route="r39" depart="39.0"/>
  <route id="r40" edges="-east west"/>
  <vehicle id="veh40" type="car" route="r40" depart="40.0"/>
  <route id="r41" edges="-south west"/>
  <vehicle id="veh41" type="car" route="r41" depart="41.0"/>
  <route id="r42" edges="-west south"/>
  <vehicle id="veh42" type="car" route="r42" depart="42.0"/>
  <route id="r43" edges="-south west"/>
  <vehicle id="veh43" type="car" route="r43" depart="43.0"/>
  <route id="r44" edges="-south north"/>
  <vehicle id="veh44" type="car" route="r44" depart="44.0"/>
  <route id="r45" edges="-east west"/>
  <vehicle id="veh45" type="car" route="r45" depart="45.0"/>
  <route id="r46" edges="-north east"/>
  <vehicle id="veh46" type="car" route="r46" depart="46.0"/>
  <route id="r47" edges="-north east"/>
  <vehicle id="veh47" type="car" route="r47" depart="47.0"/>
  <route id="r48" edges="-east south"/>
  <vehicle id="veh48" type="car" route="r48" depart="48.0"/>
  <route id="r49" edges="-south west"/>
  <vehicle id="veh49" type="car" route="r49" depart="49.0"/>
  <route id="r50" edges="-south east"/>
  <vehicle id="veh50" type="car" route="r50" depart="50.0"/>
  <route id="r51" edges="-east south"/>
  <vehicle id="veh51" type="car" route="r51" depart="51.0"/>
  <route id="r52" edges="-south east"/>
  <vehicle id="veh52" type="car" route="r52" depart="52.0"/>
  <route id="r53" edges="-south west"/>
  <vehicle id="veh53" type="car" route="r53" depart="53.0"/>
  <route id="r54" edges="-west north"/>
  <vehicle id="veh54" type="car" route="r54" depart="54.0"/>
  <route id="r55" edges="-east south"/>
  <vehicle id="veh55" type="car" route="r55" depart="55.0"/>
  <route id="r56" edges="-north east"/>
  <vehicle id="veh56" type="car" route="r56" depart="56.0"/>
  <route id="r57" edges="-north east"/>
  <vehicle id="veh57" type="car" route="r57" depart="57.0"/>
  <route id="r58" edges="-south east"/>
  <vehicle id="veh58" type="car" route="r58" depart="58.0"/>
  <route id="r59" edges="-east south"/>
  <vehicle id="veh59" type="car" route="r59" depart="59.0"/>
  <route id="r60" edges="-west east"/>
  <vehicle id="veh60" type="car" route="r60" depart="60.0"/>
  <route id="r61" edges="-north south"/>
  <vehicle id="veh61" type="car" route="r61" depart="61.0"/>
  <route id="r62" edges="-west east"/>
  <vehicle id="veh62" type="car" route="r62" depart="62.0"/>
  <route id="r63" edges="-south north"/>
  <vehicle id="veh63" type="car" route="r63" depart="63.0"/>
  <route id="r64" edges="-west east"/>
  <vehicle id="veh64" type="car" route="r64" depart="64.0"/>
  <route id="r65" edges="-west east"/>
  <vehicle id="veh65" type="car" route="r65" depart="65.0"/>
  <route id="r66" edges="-west south"/>
  <vehicle id="veh66" type="car" route="r66" depart="66.0"/>
  <route id="r67" edges="-west east"/>
  <vehicle id="veh67" type="car" route="r67" depart="67.0"/>
  <route id="r68" edges="-west east"/>
  <vehicle id="veh68" type="car" route="r68" depart="68.0"/>
  <route id="r69" edges="-south north"/>
  <vehicle id="veh69" type="car" route="r69" depart="69.0"/>
  <route id="r70" edges="-north east"/>
  <vehicle id="veh70" type="car" route="r70" depart="70.0"/>
  <route id="r71" edges="-east north"/>
  <vehicle id="veh71" type="car" route="r71" depart="71.0"/>
  <route id="r72" edges="-west north"/>
  <vehicle id="veh72" type="car" route="r72" depart="72.0"/>
  <route id="r73" edges="-south west"/>
  <vehicle id="veh73" type="car" route="r73" depart="73.0"/>
  <route id="r74" edges="-east north"/>
  <vehicle id="veh74" type="car" route="r74" depart="74.0"/>
  <route id="r75" edges="-north south"/>
  <vehicle id="veh75" type="car" route="r75" depart="75.0"/>
  <route id="r76" edges="-north east"/>
  <vehicle id="veh76" type="car" route="r76" depart="76.0"/>
  <route id="r77" edges="-north south"/>
  <vehicle id="veh77" type="car" route="r77" depart="77.0"/>
  <route id="r78" edges="-east west"/>
  <vehicle id="veh78" type="car" route="r78" depart="78.0"/>
  <route id="r79" edges="-south west"/>
  <vehicle id="veh79" type="car" route="r79" depart="79.0"/>
  <route id="r80" edges="-east west"/>
  <vehicle id="veh80" type="car" route="r80" depart="80.0"/>
  <route id="r81" edges="-south west"/>
  <vehicle id="veh81" type="car" route="r81" depart="81.0"/>
  <route id="r82" edges="-south east"/>
  <vehicle id="veh82" type="car" route="r82" depart="82.0"/>
  <route id="r83" edges="-west north"/>
  <vehicle id="veh83" type="car" route="r83" depart="83.0"/>
  <route id="r84" edges="-north south"/>
  <vehicle id="veh84" type="car" route="r84" depart="84.0"/>
  <route id="r85" edges="-south north"/>
  <vehicle id="veh85" type="car" route="r85" depart="85.0"/>
  <route id="r86" edges="-west east"/>
  <vehicle id="veh86" type="car" route="r86" depart="86.0"/>
  <route id="r87" edges="-south west"/>
  <vehicle id="veh87" type="car" route="r87" depart="87.0"/>
  <route id="r88" edges="-north west"/>
  <vehicle id="veh88" type="car" route="r88" depart="88.0"/>
  <route id="r89" edges="-south east"/>
  <vehicle id="veh89" type="car" route="r89" depart="89.0"/>
  <route id="r90" edges="-west south"/>
  <vehicle id="veh90" type="car" route="r90" depart="90.0"/>
  <route id="r91" edges="-west south"/>
  <vehicle id="veh91" type="car" route="r91" depart="91.0"/>
  <route id="r92" edges="-east south"/>
  <vehicle id="veh92" type="car" route="r92" depart="92.0"/>
  <route id="r93" edges="-north south"/>
  <vehicle id="veh93" type="car" route="r93" depart="93.0"/>
  <route id="r94" edges="-north east"/>
  <vehicle id="veh94" type="car" route="r94" depart="94.0"/>
  <route id="r95" edges="-south west"/>
  <vehicle id="veh95" type="car" route="r95" depart="95.0"/>
  <route id="r96" edges="-west north"/>
  <vehicle id="veh96" type="car" route="r96" depart="96.0"/>
  <route id="r97" edges="-north east"/>
  <vehicle id="veh97" type="car" route="r97" depart="97.0"/>
  <route id="r98" edges="-north south"/>
  <vehicle id="veh98" type="car" route="r98" depart="98.0"/>
  <route id="r99" edges="-south east"/>
  <vehicle id="veh99" type="car" route="r99" depart="99.0"/>
  <route id="r100" edges="-south west"/>
  <vehicle id="veh100" type="car" route="r100" depart="100.0"/>
  <route id="r101" edges="-west east"/>
  <vehicle id="veh101" type="car" route="r101" depart="101.0"/>
  <route id="r102" edges="-south east"/>
  <vehicle id="veh102" type="car" route="r102" depart="102.0"/>
  <route id="r103" edges="-south east"/>
  <vehicle id="veh103" type="car" route="r103" depart="103.0"/>
  <route id="r104" edges="-east north"/>
  <vehicle id="veh104" type="car" route="r104" depart="104.0"/>
  <route id="r105" edges="-east north"/>
  <vehicle id="veh105" type="car" route="r105" depart="105.0"/>
  <route id="r106" edges="-south west"/>
  <vehicle id="veh106" type="car" route="r106" depart="106.0"/>
  <route id="r107" edges="-south west"/>
  <vehicle id="veh107" type="car" route="r107" depart="107.0"/>
  <route id="r108" edges="-south east"/>
  <vehicle id="veh108" type="car" route="r108" depart="108.0"/>
  <route id="r109" edges="-north east"/>
  <vehicle id="veh109" type="car" route="r109" depart="109.0"/>
  <route id="r110" edges="-west south"/>
  <vehicle id="veh110" type="car" route="r110" depart="110.0"/>
  <route id="r111" edges="-east north"/>
  <vehicle id="veh111" type="car" route="r111" depart="111.0"/>
  <route id="r112" edges="-north west"/>
  <vehicle id="veh112" type="car" route="r112" depart="112.0"/>
  <route id="r113" edges="-south north"/>
  <vehicle id="veh113" type="car" route="r113" depart="113.0"/>
  <route id="r114" edges="-east north"/>
  <vehicle id="veh114" type="car" route="r114" depart="114.0"/>
  <route id="r115" edges="-north south"/>
  <vehicle id="veh115" type="car" route="r115" depart="115.0"/>
  <route id="r116" edges="-west north"/>
  <vehicle id="veh116" type="car" route="r116" depart="116.0"/>
  <route id="r117" edges="-east north"/>
  <vehicle id="veh117" type="car" route="r117" depart="117.0"/>
  <route id="r118" edges="-east south"/>
  <vehicle id="veh118" type="car" route="r118" depart="118.0"/>
  <route id="r119" edges="-east north"/>
  <vehicle id="veh119" type="car" route="r119" depart="119.0"/>
  <route id="r120" edges="-west north"/>
  <vehicle id="veh120" type="car" route="r120" depart="120.0"/>
  <route id="r121" edges="-east north"/>
  <vehicle id="veh121" type="car" route="r121" depart="121.0"/>
  <route id="r122" edges="-south east"/>
  <vehicle id="veh122" type="car" route="r122" depart="122.0"/>
  <route id="r123" edges="-west south"/>
  <vehicle id="veh123" type="car" route="r123" depart="123.0"/>
  <route id="r124" edges="-north south"/>
  <vehicle id="veh124" type="car" route="r124" depart="124.0"/>
  <route id="r125" edges="-east west"/>
  <vehicle id="veh125" type="car" route="r125" depart="125.0"/>
  <route id="r126" edges="-east north"/>
  <vehicle id="veh126" type="car" route="r126" depart="126.0"/>
  <route id="r127" edges="-north east"/>
  <vehicle id="veh127" type="car" route="r127" depart="127.0"/>
  <route id="r128" edges="-south east"/>
  <vehicle id="veh128" type="car" route="r128" depart="128.0"/>
  <route id="r129" edges="-west south"/>
  <vehicle id="veh129" type="car" route="r129" depart="129.0"/>
  <route id="r130" edges="-south east"/>
  <vehicle id="veh130" type="car" route="r130" depart="130.0"/>
  <route id="r131" edges="-north south"/>
  <vehicle id="veh131" type="car" route="r131" depart="131.0"/>
  <route id="r132" edges="-west north"/>
  <vehicle id="veh132" type="car" route="r132" depart="132.0"/>
  <route id="r133" edges="-south west"/>
  <vehicle id="veh133" type="car" route="r133" depart="133.0"/>
  <route id="r134" edges="-east south"/>
  <vehicle id="veh134" type="car" route="r134" depart="134.0"/>
  <route id="r135" edges="-west south"/>
  <vehicle id="veh135" type="car" route="r135" depart="135.0"/>
  <route id="r136" edges="-west south"/>
  <vehicle id="veh136" type="car" route="r136" depart="136.0"/>
  <route id="r137" edges="-north west"/>
  <vehicle id="veh137" type="car" route="r137" depart="137.0"/>
  <route id="r138" edges="-east west"/>
  <vehicle id="veh138" type="car" route="r138" depart="138.0"/>
  <route id="r139" edges="-south north"/>
  <vehicle id="veh139" type="car" route="r139" depart="139.0"/>
  <route id="r140" edges="-north east"/>
  <vehicle id="veh140" type="car" route="r140" depart="140.0"/>
  <route id="r141" edges="-south west"/>
  <vehicle id="veh141" type="car" route="r141" depart="141.0"/>
  <route id="r142" edges="-south west"/>
  <vehicle id="veh142" type="car" route="r142" depart="142.0"/>
  <route id="r143" edges="-east north"/>
  <vehicle id="veh143" type="car" route="r143" depart="143.0"/>
  <route id="r144" edges="-south west"/>
  <vehicle id="veh144" type="car" route="r144" depart="144.0"/>
  <route id="r145" edges="-west north"/>
  <vehicle id="veh145" type="car" route="r145" depart="145.0"/>
  <route id="r146" edges="-east south"/>
  <vehicle id="veh146" type="car" route="r146" depart="146.0"/>
  <route id="r147" edges="-east west"/>
  <vehicle id="veh147" type="car" route="r147" depart="147.0"/>
  <route id="r148" edges="-east west"/>
  <vehicle id="veh148" type="car" route="r148" depart="148.0"/>
  <route id="r149" edges="-north east"/>
  <vehicle id="veh149" type="car" route="r149" depart="149.0"/>
  <route id="r150" edges="-east south"/>
  <vehicle id="veh150" type="car" route="r150" depart="150.0"/>
  <route id="r151" edges="-south north"/>
  <vehicle id="veh151" type="car" route="r151" depart="151.0"/>
  <route id="r152" edges="-east west"/>
  <vehicle id="veh152" type="car" route="r152" depart="152.0"/>
  <route id="r153" edges="-east north"/>
  <vehicle id="veh153" type="car" route="r153" depart="153.0"/>
  <route id="r154" edges="-north east"/>
  <vehicle id="veh154" type="car" route="r154" depart="154.0"/>
  <route id="r155" edges="-south west"/>
  <vehicle id="veh155" type="car" route="r155" depart="155.0"/>
  <route id="r156" edges="-east north"/>
  <vehicle id="veh156" type="car" route="r156" depart="156.0"/>
  <route id="r157" edges="-west north"/>
  <vehicle id="veh157" type="car" route="r157" depart="157.0"/>
  <route id="r158" edges="-south west"/>
  <vehicle id="veh158" type="car" route="r158" depart="158.0"/>
  <route id="r159" edges="-east south"/>
  <vehicle id="veh159" type="car" route="r159" depart="159.0"/>
  <route id="r160" edges="-south west"/>
  <vehicle id="veh160" type="car" route="r160" depart="160.0"/>
  <route id="r161" edges="-north south"/>
  <vehicle id="veh161" type="car" route="r161" depart="161.0"/>
  <route id="r162" edges="-south north"/>
  <vehicle id="veh162" type="car" route="r162" depart="162.0"/>
  <route id="r163" edges="-west south"/>
  <vehicle id="veh163" type="car" route="r163" depart="163.0"/>
  <route id="r164" edges="-south north"/>
  <vehicle id="veh164" type="car" route="r164" depart="164.0"/>
  <route id="r165" edges="-north south"/>
  <vehicle id="veh165" type="car" route="r165" depart="165.0"/>
  <route id="r166" edges="-north south"/>
  <vehicle id="veh166" type="car" route="r166" depart="166.0"/>
  <route id="r167" edges="-south east"/>
  <vehicle id="veh167" type="car" route="r167" depart="167.0"/>
  <route id="r168" edges="-south east"/>
  <vehicle id="veh168" type="car" route="r168" depart="168.0"/>
  <route id="r169" edges="-east south"/>
  <vehicle id="veh169" type="car" route="r169" depart="169.0"/>
  <route id="r170" edges="-north west"/>
  <vehicle id="veh170" type="car" route="r170" depart="170.0"/>
  <route id="r171" edges="-west east"/>
  <vehicle id="veh171" type="car" route="r171" depart="171.0"/>
  <route id="r172" edges="-south east"/>
  <vehicle id="veh172" type="car" route="r172" depart="172.0"/>
  <route id="r173" edges="-west east"/>
  <vehicle id="veh173" type="car" route="r173" depart="173.0"/>
  <route id="r174" edges="-north south"/>
  <vehicle id="veh174" type="car" route="r174" depart="174.0"/>
  <route id="r175" edges="-west south"/>
  <vehicle id="veh175" type="car" route="r175" depart="175.0"/>
  <route id="r176" edges="-south west"/>
  <vehicle id="veh176" type="car" route="r176" depart="176.0"/>
  <route id="r177" edges="-south west"/>
  <vehicle id="veh177" type="car" route="r177" depart="177.0"/>
  <route id="r178" edges="-south west"/>
  <vehicle id="veh178" type="car" route="r178" depart="178.0"/>
  <route id="r179" edges="-west north"/>
  <vehicle id="veh179" type="car" route="r179" depart="179.0"/>
  <route id="r180" edges="-east west"/>
  <vehicle id="veh180" type="car" route="r180" depart="180.0"/>
  <route id="r181" edges="-south north"/>
  <vehicle id="veh181" type="car" route="r181" depart="181.0"/>
  <route id="r182" edges="-east north"/>
  <vehicle id="veh182" type="car" route="r182" depart="182.0"/>
  <route id="r183" edges="-east west"/>
  <vehicle id="veh183" type="car" route="r183" depart="183.0"/>
  <route id="r184" edges="-west east"/>
  <vehicle id="veh184" type="car" route="r184" depart="184.0"/>
  <route id="r185" edges="-west north"/>
  <vehicle id="veh185" type="car" route="r185" depart="185.0"/>
  <route id="r186" edges="-east west"/>
  <vehicle id="veh186" type="car" route="r186" depart="186.0"/>
  <route id="r187" edges="-north south"/>
  <vehicle id="veh187" type="car" route="r187" depart="187.0"/>
  <route id="r188" edges="-north west"/>
  <vehicle id="veh188" type="car" route="r188" depart="188.0"/>
  <route id="r189" edges="-west east"/>
  <vehicle id="veh189" type="car" route="r189" depart="189.0"/>
  <route id="r190" edges="-east south"/>
  <vehicle id="veh190" type="car" route="r190" depart="190.0"/>
  <route id="r191" edges="-west north"/>
  <vehicle id="veh191" type="car" route="r191" depart="191.0"/>
  <route id="r192" edges="-south east"/>
  <vehicle id="veh192" type="car" route="r192" depart="192.0"/>
  <route id="r193" edges="-east north"/>
  <vehicle id="veh193" type="car" route="r193" depart="193.0"/>
  <route id="r194" edges="-west south"/>
  <vehicle id="veh194" type="car" route="r194" depart="194.0"/>
  <route id="r195" edges="-east south"/>
  <vehicle id="veh195" type="car" route="r195" depart="195.0"/>
  <route id="r196" edges="-north west"/>
  <vehicle id="veh196" type="car" route="r196" depart="196.0"/>
  <route id="r197" edges="-north south"/>
  <vehicle id="veh197" type="car" route="r197" depart="197.0"/>
  <route id="r198" edges="-east west"/>
  <vehicle id="veh198" type="car" route="r198" depart="198.0"/>
  <route id="r199" edges="-south north"/>
  <vehicle id="veh199" type="car" route="r199" depart="199.0"/>
  <route id="r200" edges="-west south"/>
  <vehicle id="veh200" type="car" route="r200" depart="200.0"/>
  <route id="r201" edges="-south east"/>
  <vehicle id="veh201" type="car" route="r201" depart="201.0"/>
  <route id="r202" edges="-west east"/>
  <vehicle id="veh202" type="car" route="r202" depart="202.0"/>
  <route id="r203" edges="-north west"/>
  <vehicle id="veh203" type="car" route="r203" depart="203.0"/>
  <route id="r204" edges="-north east"/>
  <vehicle id="veh204" type="car" route="r204" depart="204.0"/>
  <route id="r205" edges="-east south"/>
  <vehicle id="veh205" type="car" route="r205" depart="205.0"/>
  <route id="r206" edges="-west south"/>
  <vehicle id="veh206" type="car" route="r206" depart="206.0"/>
  <route id="r207" edges="-west north"/>
  <vehicle id="veh207" type="car" route="r207" depart="207.0"/>
  <route id="r208" edges="-west south"/>
  <vehicle id="veh208" type="car" route="r208" depart="208.0"/>
  <route id="r209" edges="-east south"/>
  <vehicle id="veh209" type="car" route="r209" depart="209.0"/>
  <route id="r210" edges="-south west"/>
  <vehicle id="veh210" type="car" route="r210" depart="210.0"/>
  <route id="r211" edges="-east south"/>
  <vehicle id="veh211" type="car" route="r211" depart="211.0"/>
  <route id="r212" edges="-west north"/>
  <vehicle id="veh212" type="car" route="r212" depart="212.0"/>
  <route id="r213" edges="-south east"/>
  <vehicle id="veh213" type="car" route="r213" depart="213.0"/>
  <route id="r214" edges="-east north"/>
  <vehicle id="veh214" type="car" route="r214" depart="214.0"/>
  <route id="r215" edges="-east west"/>
  <vehicle id="veh215" type="car" route="r215" depart="215.0"/>
  <route id="r216" edges="-south east"/>
  <vehicle id="veh216" type="car" route="r216" depart="216.0"/>
  <route id="r217" edges="-south east"/>
  <vehicle id="veh217" type="car" route="r217" depart="217.0"/>
  <route id="r218" edges="-south west"/>
  <vehicle id="veh218" type="car" route="r218" depart="218.0"/>
  <route id="r219" edges="-west south"/>
  <vehicle id="veh219" type="car" route="r219" depart="219.0"/>
  <route id="r220" edges="-north south"/>
  <vehicle id="veh220" type="car" route="r220" depart="220.0"/>
  <route id="r221" edges="-east south"/>
  <vehicle id="veh221" type="car" route="r221" depart="221.0"/>
  <route id="r222" edges="-north south"/>
  <vehicle id="veh222" type="car" route="r222" depart="222.0"/>
  <route id="r223" edges="-west south"/>
  <vehicle id="veh223" type="car" route="r223" depart="223.0"/>
  <route id="r224" edges="-west north"/>
  <vehicle id="veh224" type="car" route="r224" depart="224.0"/>
  <route id="r225" edges="-east south"/>
  <vehicle id="veh225" type="car" route="r225" depart="225.0"/>
  <route id="r226" edges="-east west"/>
  <vehicle id="veh226" type="car" route="r226" depart="226.0"/>
  <route id="r227" edges="-south east"/>
  <vehicle id="veh227" type="car" route="r227" depart="227.0"/>
  <route id="r228" edges="-south north"/>
  <vehicle id="veh228" type="car" route="r228" depart="228.0"/>
  <route id="r229" edges="-east west"/>
  <vehicle id="veh229" type="car" route="r229" depart="229.0"/>
  <route id="r230" edges="-north south"/>
  <vehicle id="veh230" type="car" route="r230" depart="230.0"/>
  <route id="r231" edges="-west south"/>
  <vehicle id="veh231" type="car" route="r231" depart="231.0"/>
  <route id="r232" edges="-north west"/>
  <vehicle id="veh232" type="car" route="r232" depart="232.0"/>
  <route id="r233" edges="-west east"/>
  <vehicle id="veh233" type="car" route="r233" depart="233.0"/>
  <route id="r234" edges="-east west"/>
  <vehicle id="veh234" type="car" route="r234" depart="234.0"/>
  <route id="r235" edges="-south north"/>
  <vehicle id="veh235" type="car" route="r235" depart="235.0"/>
  <route id="r236" edges="-east west"/>
  <vehicle id="veh236" type="car" route="r236" depart="236.0"/>
  <route id="r237" edges="-east west"/>
  <vehicle id="veh237" type="car" route="r237" depart="237.0"/>
  <route id="r238" edges="-west east"/>
  <vehicle id="veh238" type="car" route="r238" depart="238.0"/>
  <route id="r239" edges="-east west"/>
  <vehicle id="veh239" type="car" route="r239" depart="239.0"/>
  <route id="r240" edges="-east south"/>
  <vehicle id="veh240" type="car" route="r240" depart="240.0"/>
  <route id="r241" edges="-east west"/>
  <vehicle id="veh241" type="car" route="r241" depart="241.0"/>
  <route id="r242" edges="-north west"/>
  <vehicle id="veh242" type="car" route="r242" depart="242.0"/>
  <route id="r243" edges="-east north"/>
  <vehicle id="veh243" type="car" route="r243" depart="243.0"/>
  <route id="r244" edges="-west east"/>
  <vehicle id="veh244" type="car" route="r244" depart="244.0"/>
  <route id="r245" edges="-south east"/>
  <vehicle id="veh245" type="car" route="r245" depart="245.0"/>
  <route id="r246" edges="-south west"/>
  <vehicle id="veh246" type="car" route="r246" depart="246.0"/>
  <route id="r247" edges="-south east"/>
  <vehicle id="veh247" type="car" route="r247" depart="247.0"/>
  <route id="r248" edges="-east north"/>
  <vehicle id="veh248" type="car" route="r248" depart="248.0"/>
  <route id="r249" edges="-north south"/>
  <vehicle id="veh249" type="car" route="r249" depart="249.0"/>
  <route id="r250" edges="-east south"/>
  <vehicle id="veh250" type="car" route="r250" depart="250.0"/>
  <route id="r251" edges="-west south"/>
  <vehicle id="veh251" type="car" route="r251" depart="251.0"/>
  <route id="r252" edges="-east west"/>
  <vehicle id="veh252" type="car" route="r252" depart="252.0"/>
  <route id="r253" edges="-north east"/>
  <vehicle id="veh253" type="car" route="r253" depart="253.0"/>
  <route id="r254" edges="-north west"/>
  <vehicle id="veh254" type="car" route="r254" depart="254.0"/>
  <route id="r255" edges="-north east"/>
  <vehicle id="veh255" type="car" route="r255" depart="255.0"/>
  <route id="r256" edges="-south east"/>
  <vehicle id="veh256" type="car" route="r256" depart="256.0"/>
  <route id="r257" edges="-west south"/>
  <vehicle id="veh257" type="car" route="r257" depart="257.0"/>
  <route id="r258" edges="-north south"/>
  <vehicle id="veh258" type="car" route="r258" depart="258.0"/>
  <route id="r259" edges="-west north"/>
  <vehicle id="veh259" type="car" route="r259" depart="259.0"/>
  <route id="r260" edges="-west south"/>
  <vehicle id="veh260" type="car" route="r260" depart="260.0"/>
  <route id="r261" edges="-north east"/>
  <vehicle id="veh261" type="car" route="r261" depart="261.0"/>
  <route id="r262" edges="-north east"/>
  <vehicle id="veh262" type="car" route="r262" depart="262.0"/>
  <route id="r263" edges="-south west"/>
  <vehicle id="veh263" type="car" route="r263" depart="263.0"/>
  <route id="r264" edges="-east west"/>
  <vehicle id="veh264" type="car" route="r264" depart="264.0"/>
  <route id="r265" edges="-south north"/>
  <vehicle id="veh265" type="car" route="r265" depart="265.0"/>
  <route id="r266" edges="-south east"/>
  <vehicle id="veh266" type="car" route="r266" depart="266.0"/>
  <route id="r267" edges="-east west"/>
  <vehicle id="veh267" type="car" route="r267" depart="267.0"/>
  <route id="r268" edges="-west north"/>
  <vehicle id="veh268" type="car" route="r268" depart="268.0"/>
  <route id="r269" edges="-east west"/>
  <vehicle id="veh269" type="car" route="r269" depart="269.0"/>
  <route id="r270" edges="-east west"/>
  <vehicle id="veh270" type="car" route="r270" depart="270.0"/>
  <route id="r271" edges="-west north"/>
  <vehicle id="veh271" type="car" route="r271" depart="271.0"/>
  <route id="r272" edges="-west north"/>
  <vehicle id="veh272" type="car" route="r272" depart="272.0"/>
  <route id="r273" edges="-south east"/>
  <vehicle id="veh273" type="car" route="r273" depart="273.0"/>
  <route id="r274" edges="-south north"/>
  <vehicle id="veh274" type="car" route="r274" depart="274.0"/>
  <route id="r275" edges="-north west"/>
  <vehicle id="veh275" type="car" route="r275" depart="275.0"/>
  <route id="r276" edges="-west south"/>
  <vehicle id="veh276" type="car" route="r276" depart="276.0"/>
  <route id="r277" edges="-south west"/>
  <vehicle id="veh277" type="car" route="r277" depart="277.0"/>
  <route id="r278" edges="-south north"/>
  <vehicle id="veh278" type="car" route="r278" depart="278.0"/>
  <route id="r279" edges="-south west"/>
  <vehicle id="veh279" type="car" route="r279" depart="279.0"/>
  <route id="r280" edges="-north east"/>
  <vehicle id="veh280" type="car" route="r280" depart="280.0"/>
  <route id="r281" edges="-south west"/>
  <vehicle id="veh281" type="car" route="r281" depart="281.0"/>
  <route id="r282" edges="-west south"/>
  <vehicle id="veh282" type="car" route="r282" depart="282.0"/>
  <route id="r283" edges="-west north"/>
  <vehicle id="veh283" type="car" route="r283" depart="283.0"/>
  <route id="r284" edges="-south east"/>
  <vehicle id="veh284" type="car" route="r284" depart="284.0"/>
  <route id="r285" edges="-east north"/>
  <vehicle id="veh285" type="car" route="r285" depart="285.0"/>
  <route id="r286" edges="-north east"/>
  <vehicle id="veh286" type="car" route="r286" depart="286.0"/>
  <route id="r287" edges="-south east"/>
  <vehicle id="veh287" type="car" route="r287" depart="287.0"/>
  <route id="r288" edges="-south north"/>
  <vehicle id="veh288" type="car" route="r288" depart="288.0"/>