<additional>
    <tlLogic id="J0" type="static" programID="0" offset="0">
        <!-- Phase 1: East-West Straight and right -->
        <phase duration="30" state="rrrGGGrrrrGGGr"/>
        <!-- Phase 2: East-West Left -->
        <phase duration="20" state="rrrrrrGrrrrrrG"/>
        <!-- Phase 3: East-West Right
        <phase duration="15" state="rrrGrrrrrrGrrr"/> -->

        <!-- Phase 4: North-South Straight and right -->
        <phase duration="30" state="GGrrrrrGGrrrrr"/>
        <!-- Phase 5: North-South Left -->
        <phase duration="20" state="rrGrrrrrrGrrrr"/>
        
        <!-- Phase 6: North-South Right
        <phase duration="15" state="GrrrrrrGrrrrrr"/> -->
    </tlLogic>
</additional>

<!-- ('-north_0', '-north_0', '-north_1',
'-east_0', '-east_0', '-east_1', '-east_2',
'-south_0', '-south_0', '-south_1', 
'-west_0', '-west_0', '-west_1', '-west_2') -->