<routes>
  <vType id="car" accel="1.0" decel="4.5" maxSpeed="25" length="5"/>
  <vType id="truck" accel="0.5" decel="3.0" maxSpeed="18" length="12"/>
  <vType id="bus" accel="0.8" decel="3.5" maxSpeed="20" length="10"/>
  <vType id="scooter" accel="1.5" decel="4.0" maxSpeed="30" length="2"/>
  <route id="r0" edges="-north east"/>
  <route id="r1" edges="-north south"/>
  <route id="r2" edges="-north west"/>
  <route id="r3" edges="-east north"/>
  <route id="r4" edges="-east south"/>
  <route id="r5" edges="-east west"/>
  <route id="r6" edges="-south north"/>
  <route id="r7" edges="-south east"/>
  <route id="r8" edges="-south west"/>
  <route id="r9" edges="-west north"/>
  <route id="r10" edges="-west east"/>
  <route id="r11" edges="-west south"/>
  <vehicle id="veh0" type="car" route="r8" depart="0.0"/>
  <vehicle id="veh1" type="scooter" route="r1" depart="1.8"/>
  <vehicle id="veh2" type="scooter" route="r0" depart="2.1"/>
  <vehicle id="veh3" type="truck" route="r3" depart="4.7"/>
  <vehicle id="veh4" type="car" route="r0" depart="5.0"/>
  <vehicle id="veh5" type="car" route="r5" depart="8.4"/>
  <vehicle id="veh6" type="car" route="r10" depart="13.2"/>
  <vehicle id="veh7" type="car" route="r6" depart="13.3"/>
  <vehicle id="veh8" type="scooter" route="r9" depart="15.9"/>
  <vehicle id="veh9" type="bus" route="r3" depart="17.3"/>
  <vehicle id="veh10" type="scooter" route="r6" depart="19.8"/>
  <vehicle id="veh11" type="car" route="r1" depart="21.2"/>
  <vehicle id="veh12" type="car" route="r2" depart="22.3"/>
  <vehicle id="veh13" type="car" route="r10" depart="23.3"/>
  <vehicle id="veh14" type="car" route="r4" depart="24.1"/>
  <vehicle id="veh15" type="car" route="r7" depart="24.7"/>
  <vehicle id="veh16" type="car" route="r8" depart="28.3"/>
  <vehicle id="veh17" type="bus" route="r11" depart="32.0"/>
  <vehicle id="veh18" type="car" route="r11" depart="35.2"/>
  <vehicle id="veh19" type="car" route="r8" depart="35.7"/>
  <vehicle id="veh20" type="car" route="r7" depart="39.2"/>
  <vehicle id="veh21" type="car" route="r2" depart="40.2"/>
  <vehicle id="veh22" type="car" route="r6" depart="44.1"/>
  <vehicle id="veh23" type="scooter" route="r4" depart="44.2"/>
  <vehicle id="veh24" type="car" route="r2" depart="46.4"/>
  <vehicle id="veh25" type="car" route="r0" depart="50.5"/>
  <vehicle id="veh26" type="scooter" route="r9" depart="54.8"/>
  <vehicle id="veh27" type="truck" route="r6" depart="56.7"/>
  <vehicle id="veh28" type="scooter" route="r3" depart="57.9"/>
  <vehicle id="veh29" type="car" route="r9" depart="59.0"/>
  <vehicle id="veh30" type="scooter" route="r1" depart="63.2"/>
  <vehicle id="veh31" type="car" route="r8" depart="67.1"/>
  <vehicle id="veh32" type="car" route="r5" depart="69.7"/>
  <vehicle id="veh33" type="scooter" route="r9" depart="72.8"/>
  <vehicle id="veh34" type="car" route="r9" depart="74.8"/>
  <vehicle id="veh35" type="truck" route="r3" depart="76.3"/>
  <vehicle id="veh36" type="car" route="r6" depart="77.5"/>
  <vehicle id="veh37" type="car" route="r5" depart="82.1"/>
  <vehicle id="veh38" type="bus" route="r11" depart="82.9"/>
  <vehicle id="veh39" type="car" route="r6" depart="83.4"/>
  <vehicle id="veh40" type="bus" route="r10" depart="87.5"/>
  <vehicle id="veh41" type="car" route="r11" depart="89.5"/>
  <vehicle id="veh42" type="scooter" route="r10" depart="89.9"/>
  <vehicle id="veh43" type="bus" route="r7" depart="91.3"/>
  <vehicle id="veh44" type="scooter" route="r2" depart="94.2"/>
  <vehicle id="veh45" type="bus" route="r8" depart="94.5"/>
  <vehicle id="veh46" type="car" route="r9" depart="98.2"/>
  <vehicle id="veh47" type="car" route="r8" depart="101.7"/>
  <vehicle id="veh48" type="bus" route="r0" depart="104.0"/>
  <vehicle id="veh49" type="scooter" route="r0" depart="106.1"/>
  <vehicle id="veh50" type="car" route="r3" depart="106.8"/>
  <vehicle id="veh51" type="bus" route="r5" depart="110.1"/>
  <vehicle id="veh52" type="bus" route="r0" depart="114.3"/>
  <vehicle id="veh53" type="bus" route="r5" depart="117.9"/>
  <vehicle id="veh54" type="car" route="r4" depart="121.5"/>
  <vehicle id="veh55" type="truck" route="r5" depart="121.8"/>
  <vehicle id="veh56" type="bus" route="r0" depart="123.7"/>
  <vehicle id="veh57" type="bus" route="r2" depart="125.0"/>
  <vehicle id="veh58" type="scooter" route="r10" depart="126.8"/>
  <vehicle id="veh59" type="car" route="r3" depart="130.5"/>
  <vehicle id="veh60" type="car" route="r4" depart="133.1"/>
  <vehicle id="veh61" type="car" route="r1" depart="137.1"/>
  <vehicle id="veh62" type="car" route="r8" depart="138.7"/>
  <vehicle id="veh63" type="car" route="r5" depart="141.8"/>
  <vehicle id="veh64" type="car" route="r11" depart="146.4"/>
  <vehicle id="veh65" type="bus" route="r4" depart="148.1"/>
  <vehicle id="veh66" type="bus" route="r1" depart="149.0"/>
  <vehicle id="veh67" type="car" route="r10" depart="152.5"/>
  <vehicle id="veh68" type="car" route="r3" depart="157.4"/>
  <vehicle id="veh69" type="bus" route="r9" depart="157.6"/>
  <vehicle id="veh70" type="bus" route="r5" depart="157.7"/>
  <vehicle id="veh71" type="car" route="r7" depart="159.2"/>
  <vehicle id="veh72" type="bus" route="r4" depart="160.9"/>
  <vehicle id="veh73" type="car" route="r8" depart="161.7"/>
  <vehicle id="veh74" type="scooter" route="r6" depart="162.5"/>
  <vehicle id="veh75" type="truck" route="r6" depart="164.1"/>
  <vehicle id="veh76" type="car" route="r0" depart="168.1"/>
  <vehicle id="veh77" type="car" route="r4" depart="170.7"/>
  <vehicle id="veh78" type="car" route="r4" depart="172.1"/>
  <vehicle id="veh79" type="car" route="r8" depart="173.1"/>
  <vehicle id="veh80" type="scooter" route="r3" depart="177.3"/>
  <vehicle id="veh81" type="car" route="r11" depart="178.2"/>
  <vehicle id="veh82" type="car" route="r10" depart="180.7"/>
  <vehicle id="veh83" type="car" route="r7" depart="181.4"/>
  <vehicle id="veh84" type="car" route="r11" depart="181.9"/>
  <vehicle id="veh85" type="car" route="r11" depart="181.9"/>
  <vehicle id="veh86" type="truck" route="r8" depart="183.9"/>
  <vehicle id="veh87" type="truck" route="r9" depart="187.2"/>
  <vehicle id="veh88" type="car" route="r8" depart="188.5"/>
  <vehicle id="veh89" type="car" route="r8" depart="193.5"/>
  <vehicle id="veh90" type="scooter" route="r9" depart="197.1"/>
  <vehicle id="veh91" type="scooter" route="r1" depart="201.0"/>
  <vehicle id="veh92" type="car" route="r11" depart="202.6"/>
  <vehicle id="veh93" type="car" route="r9" depart="204.9"/>
  <vehicle id="veh94" type="bus" route="r3" depart="205.9"/>
  <vehicle id="veh95" type="scooter" route="r6" depart="208.6"/>
  <vehicle id="veh96" type="bus" route="r0" depart="211.4"/>
  <vehicle id="veh97" type="scooter" route="r9" depart="212.2"/>
  <vehicle id="veh98" type="car" route="r10" depart="215.4"/>
  <vehicle id="veh99" type="scooter" route="r5" depart="219.2"/>
  <vehicle id="veh100" type="scooter" route="r1" depart="221.8"/>
  <vehicle id="veh101" type="car" route="r10" depart="223.9"/>
  <vehicle id="veh102" type="bus" route="r6" depart="227.7"/>
  <vehicle id="veh103" type="car" route="r10" depart="230.2"/>
  <vehicle id="veh104" type="car" route="r5" depart="232.4"/>
  <vehicle id="veh105" type="bus" route="r3" depart="237.0"/>
  <vehicle id="veh106" type="bus" route="r4" depart="239.5"/>
  <vehicle id="veh107" type="car" route="r1" depart="243.9"/>
  <vehicle id="veh108" type="car" route="r10" depart="244.3"/>
  <vehicle id="veh109" type="bus" route="r6" depart="248.0"/>
  <vehicle id="veh110" type="car" route="r9" depart="251.0"/>
  <vehicle id="veh111" type="car" route="r0" depart="252.6"/>
  <vehicle id="veh112" type="truck" route="r1" depart="255.6"/>
  <vehicle id="veh113" type="car" route="r5" depart="259.7"/>
  <vehicle id="veh114" type="truck" route="r8" depart="260.1"/>
  <vehicle id="veh115" type="bus" route="r7" depart="262.8"/>
  <vehicle id="veh116" type="car" route="r6" depart="264.8"/>
  <vehicle id="veh117" type="bus" route="r0" depart="266.9"/>
  <vehicle id="veh118" type="car" route="r6" depart="267.4"/>
  <vehicle id="veh119" type="car" route="r6" depart="271.3"/>
  <vehicle id="veh120" type="bus" route="r4" depart="271.6"/>
  <vehicle id="veh121" type="scooter" route="r11" depart="274.8"/>
  <vehicle id="veh122" type="truck" route="r6" depart="276.7"/>
  <vehicle id="veh123" type="truck" route="r11" depart="279.0"/>
  <vehicle id="veh124" type="car" route="r5" depart="283.5"/>
  <vehicle id="veh125" type="car" route="r7" depart="287.1"/>
  <vehicle id="veh126" type="bus" route="r11" depart="289.6"/>
  <vehicle id="veh127" type="bus" route="r10" depart="290.1"/>
  <vehicle id="veh128" type="scooter" route="r8" depart="292.4"/>
  <vehicle id="veh129" type="car" route="r9" depart="294.4"/>
  <vehicle id="veh130" type="scooter" route="r7" depart="296.8"/>
  <vehicle id="veh131" type="car" route="r9" depart="297.0"/>
  <vehicle id="veh132" type="bus" route="r8" depart="300.4"/>
  <vehicle id="veh133" type="scooter" route="r5" depart="303.3"/>
  <vehicle id="veh134" type="scooter" route="r6" depart="305.1"/>
  <vehicle id="veh135" type="car" route="r1" depart="305.8"/>
  <vehicle id="veh136" type="car" route="r2" depart="306.8"/>
  <vehicle id="veh137" type="car" route="r10" depart="309.1"/>
  <vehicle id="veh138" type="scooter" route="r2" depart="309.9"/>
  <vehicle id="veh139" type="truck" route="r5" depart="311.9"/>
  <vehicle id="veh140" type="scooter" route="r6" depart="316.6"/>
  <vehicle id="veh141" type="car" route="r1" depart="317.4"/>
  <vehicle id="veh142" type="car" route="r10" depart="321.4"/>
  <vehicle id="veh143" type="car" route="r1" depart="321.9"/>
  <vehicle id="veh144" type="car" route="r5" depart="324.3"/>
  <vehicle id="veh145" type="bus" route="r11" depart="326.8"/>
  <vehicle id="veh146" type="scooter" route="r6" depart="326.8"/>
  <vehicle id="veh147" type="car" route="r11" depart="331.3"/>
  <vehicle id="veh148" type="car" route="r4" depart="334.4"/>
  <vehicle id="veh149" type="scooter" route="r7" depart="338.6"/>
  <vehicle id="veh150" type="bus" route="r8" depart="341.5"/>
  <vehicle id="veh151" type="car" route="r1" depart="344.0"/>
  <vehicle id="veh152" type="truck" route="r10" depart="344.4"/>
  <vehicle id="veh153" type="bus" route="r3" depart="345.7"/>
  <vehicle id="veh154" type="car" route="r2" depart="347.6"/>
  <vehicle id="veh155" type="car" route="r1" depart="350.3"/>
  <vehicle id="veh156" type="truck" route="r11" depart="354.2"/>
  <vehicle id="veh157" type="car" route="r1" depart="354.3"/>
  <vehicle id="veh158" type="bus" route="r0" depart="357.3"/>
  <vehicle id="veh159" type="car" route="r8" depart="358.6"/>
  <vehicle id="veh160" type="scooter" route="r7" depart="359.5"/>
  <vehicle id="veh161" type="car" route="r1" depart="360.0"/>
  <vehicle id="veh162" type="truck" route="r6" depart="360.6"/>
  <vehicle id="veh163" type="car" route="r1" depart="365.4"/>
  <vehicle id="veh164" type="car" route="r3" depart="367.4"/>
  <vehicle id="veh165" type="car" route="r3" depart="367.7"/>
  <vehicle id="veh166" type="car" route="r11" depart="372.6"/>
  <vehicle id="veh167" type="bus" route="r9" depart="377.4"/>
  <vehicle id="veh168" type="bus" route="r3" depart="380.2"/>
  <vehicle id="veh169" type="bus" route="r2" depart="384.8"/>
  <vehicle id="veh170" type="car" route="r3" depart="384.8"/>
  <vehicle id="veh171" type="car" route="r8" depart="385.2"/>
  <vehicle id="veh172" type="car" route="r6" depart="385.5"/>
  <vehicle id="veh173" type="scooter" route="r10" depart="387.9"/>
  <vehicle id="veh174" type="car" route="r11" depart="392.6"/>
  <vehicle id="veh175" type="bus" route="r9" depart="396.1"/>
  <vehicle id="veh176" type="car" route="r9" depart="398.9"/>
  <vehicle id="veh177" type="scooter" route="r7" depart="400.5"/>
  <vehicle id="veh178" type="car" route="r6" depart="402.2"/>
  <vehicle id="veh179" type="car" route="r7" depart="403.5"/>
  <vehicle id="veh180" type="car" route="r3" depart="404.7"/>
  <vehicle id="veh181" type="scooter" route="r7" depart="408.3"/>
  <vehicle id="veh182" type="car" route="r10" depart="411.7"/>
  <vehicle id="veh183" type="car" route="r11" depart="413.5"/>
  <vehicle id="veh184" type="car" route="r7" depart="414.9"/>
  <vehicle id="veh185" type="car" route="r0" depart="418.3"/>
  <vehicle id="veh186" type="scooter" route="r2" depart="422.2"/>
  <vehicle id="veh187" type="car" route="r6" depart="426.0"/>
  <vehicle id="veh188" type="scooter" route="r7" depart="428.0"/>
  <vehicle id="veh189" type="bus" route="r7" depart="430.8"/>
  <vehicle id="veh190" type="car" route="r2" depart="431.4"/>
  <vehicle id="veh191" type="car" route="r2" depart="432.2"/>
  <vehicle id="veh192" type="car" route="r3" depart="433.7"/>
  <vehicle id="veh193" type="car" route="r2" depart="436.2"/>
  <vehicle id="veh194" type="scooter" route="r0" depart="437.8"/>
  <vehicle id="veh195" type="car" route="r6" depart="441.6"/>
  <vehicle id="veh196" type="car" route="r9" depart="446.6"/>
  <vehicle id="veh197" type="bus" route="r10" depart="448.7"/>
  <vehicle id="veh198" type="car" route="r4" depart="448.9"/>
  <vehicle id="veh199" type="car" route="r10" depart="453.4"/>
  <vehicle id="veh200" type="bus" route="r1" depart="453.8"/>
  <vehicle id="veh201" type="bus" route="r5" depart="454.5"/>
  <vehicle id="veh202" type="bus" route="r6" depart="456.0"/>
  <vehicle id="veh203" type="car" route="r5" depart="456.5"/>
  <vehicle id="veh204" type="bus" route="r10" depart="457.8"/>
  <vehicle id="veh205" type="truck" route="r1" depart="459.1"/>
  <vehicle id="veh206" type="bus" route="r2" depart="463.1"/>
  <vehicle id="veh207" type="scooter" route="r9" depart="465.2"/>
  <vehicle id="veh208" type="car" route="r10" depart="469.5"/>
  <vehicle id="veh209" type="bus" route="r5" depart="471.6"/>
  <vehicle id="veh210" type="car" route="r8" depart="473.7"/>
  <vehicle id="veh211" type="bus" route="r7" depart="476.8"/>
  <vehicle id="veh212" type="truck" route="r2" depart="477.2"/>
  <vehicle id="veh213" type="scooter" route="r9" depart="477.5"/>
  <vehicle id="veh214" type="scooter" route="r8" depart="480.7"/>
  <vehicle id="veh215" type="car" route="r1" depart="482.1"/>
  <vehicle id="veh216" type="bus" route="r5" depart="483.3"/>
  <vehicle id="veh217" type="car" route="r8" depart="485.3"/>
  <vehicle id="veh218" type="bus" route="r0" depart="486.9"/>
  <vehicle id="veh219" type="scooter" route="r3" depart="490.4"/>
  <vehicle id="veh220" type="car" route="r1" depart="493.6"/>
  <vehicle id="veh221" type="car" route="r8" depart="493.6"/>
  <vehicle id="veh222" type="scooter" route="r7" depart="495.5"/>
  <vehicle id="veh223" type="scooter" route="r6" depart="496.6"/>
  <vehicle id="veh224" type="car" route="r6" depart="499.0"/>
  <vehicle id="veh225" type="car" route="r1" depart="499.6"/>
  <vehicle id="veh226" type="bus" route="r2" depart="499.8"/>
  <vehicle id="veh227" type="bus" route="r8" depart="501.1"/>
  <vehicle id="veh228" type="bus" route="r5" depart="502.5"/>
  <vehicle id="veh229" type="car" route="r8" depart="505.1"/>
  <vehicle id="veh230" type="scooter" route="r11" depart="506.7"/>
  <vehicle id="veh231" type="bus" route="r10" depart="510.3"/>
  <vehicle id="veh232" type="car" route="r0" depart="510.6"/>
  <vehicle id="veh233" type="bus" route="r4" depart="512.9"/>
  <vehicle id="veh234" type="car" route="r2" depart="513.9"/>
  <vehicle id="veh235" type="scooter" route="r2" depart="517.5"/>
  <vehicle id="veh236" type="scooter" route="r7" depart="521.0"/>
  <vehicle id="veh237" type="car" route="r2" depart="523.0"/>
  <vehicle id="veh238" type="truck" route="r5" depart="525.2"/>
  <vehicle id="veh239" type="scooter" route="r11" depart="526.6"/>
  <vehicle id="veh240" type="car" route="r8" depart="529.0"/>
  <vehicle id="veh241" type="scooter" route="r11" depart="532.8"/>
  <vehicle id="veh242" type="car" route="r4" depart="534.0"/>
  <vehicle id="veh243" type="bus" route="r0" depart="536.1"/>
  <vehicle id="veh244" type="scooter" route="r8" depart="538.1"/>
  <vehicle id="veh245" type="car" route="r10" depart="541.5"/>
  <vehicle id="veh246" type="truck" route="r4" depart="542.0"/>
  <vehicle id="veh247" type="car" route="r10" depart="543.2"/>
  <vehicle id="veh248" type="car" route="r8" depart="543.9"/>
  <vehicle id="veh249" type="car" route="r1" depart="545.8"/>
  <vehicle id="veh250" type="car" route="r7" depart="549.6"/>
  <vehicle id="veh251" type="car" route="r11" depart="549.7"/>
  <vehicle id="veh252" type="truck" route="r1" depart="550.3"/>
  <vehicle id="veh253" type="scooter" route="r0" depart="551.8"/>
  <vehicle id="veh254" type="car" route="r1" depart="556.2"/>
  <vehicle id="veh255" type="car" route="r4" depart="557.1"/>
  <vehicle id="veh256" type="car" route="r1" depart="558.0"/>
  <vehicle id="veh257" type="car" route="r3" depart="559.5"/>
  <vehicle id="veh258" type="bus" route="r10" depart="560.6"/>
  <vehicle id="veh259" type="car" route="r5" depart="564.6"/>
  <vehicle id="veh260" type="scooter" route="r11" depart="568.7"/>
  <vehicle id="veh261" type="bus" route="r0" depart="569.5"/>
  <vehicle id="veh262" type="car" route="r1" depart="571.2"/>
  <vehicle id="veh263" type="scooter" route="r3" depart="573.4"/>
  <vehicle id="veh264" type="car" route="r7" depart="575.5"/>
  <vehicle id="veh265" type="car" route="r3" depart="580.3"/>
  <vehicle id="veh266" type="car" route="r0" depart="585.1"/>
  <vehicle id="veh267" type="bus" route="r4" depart="587.2"/>
  <vehicle id="veh268" type="car" route="r0" depart="587.8"/>
  <vehicle id="veh269" type="scooter" route="r3" depart="589.1"/>
  <vehicle id="veh270" type="car" route="r2" depart="592.5"/>
  <vehicle id="veh271" type="car" route="r5" depart="596.2"/>
  <vehicle id="veh272" type="car" route="r7" depart="599.5"/>
  <vehicle id="veh273" type="car" route="r5" depart="602.4"/>
  <vehicle id="veh274" type="car" route="r5" depart="604.3"/>
  <vehicle id="veh275" type="car" route="r10" depart="605.0"/>
  <vehicle id="veh276" type="car" route="r10" depart="605.1"/>
  <vehicle id="veh277" type="bus" route="r2" depart="605.5"/>
  <vehicle id="veh278" type="car" route="r11" depart="610.2"/>
  <vehicle id="veh279" type="car" route="r10" depart="615.0"/>
  <vehicle id="veh280" type="car" route="r5" depart="616.8"/>
  <vehicle id="veh281" type="bus" route="r8" depart="616.9"/>
  <vehicle id="veh282" type="car" route="r3" depart="618.2"/>
  <vehicle id="veh283" type="truck" route="r6" depart="621.5"/>
  <vehicle id="veh284" type="car" route="r8" depart="624.4"/>
  <vehicle id="veh285" type="car" route="r6" depart="625.3"/>
  <vehicle id="veh286" type="scooter" route="r7" depart="628.8"/>
  <vehicle id="veh287" type="car" route="r6" depart="632.9"/>
  <vehicle id="veh288" type="car" route="r7" depart="634.9"/>
  <vehicle id="veh289" type="bus" route="r8" depart="636.7"/>
  <vehicle id="veh290" type="truck" route="r4" depart="641.4"/>
  <vehicle id="veh291" type="scooter" route="r6" depart="645.6"/>
  <vehicle id="veh292" type="scooter" route="r9" depart="645.9"/>
  <vehicle id="veh293" type="car" route="r5" depart="648.3"/>
  <vehicle id="veh294" type="scooter" route="r11" depart="649.6"/>
  <vehicle id="veh295" type="scooter" route="r4" depart="650.7"/>
  <vehicle id="veh296" type="scooter" route="r6" depart="652.3"/>
  <vehicle id="veh297" type="bus" route="r9" depart="656.2"/>
  <vehicle id="veh298" type="car" route="r2" depart="659.7"/>
  <vehicle id="veh299" type="scooter" route="r6" depart="662.8"/>
  <vehicle id="veh300" type="car" route="r9" depart="665.8"/>
  <vehicle id="veh301" type="car" route="r11" depart="670.3"/>
  <vehicle id="veh302" type="car" route="r2" depart="670.7"/>
  <vehicle id="veh303" type="bus" route="r10" depart="672.9"/>
  <vehicle id="veh304" type="car" route="r6" depart="676.9"/>
  <vehicle id="veh305" type="scooter" route="r9" depart="677.7"/>
  <vehicle id="veh306" type="scooter" route="r6" depart="681.0"/>
  <vehicle id="veh307" type="bus" route="r10" depart="685.8"/>
  <vehicle id="veh308" type="truck" route="r11" depart="689.8"/>
  <vehicle id="veh309" type="truck" route="r1" depart="691.6"/>
  <vehicle id="veh310" type="car" route="r1" depart="693.0"/>
  <vehicle id="veh311" type="bus" route="r4" depart="696.1"/>
  <vehicle id="veh312" type="truck" route="r6" depart="700.9"/>
  <vehicle id="veh313" type="bus" route="r3" depart="701.2"/>
  <vehicle id="veh314" type="bus" route="r10" depart="705.2"/>
  <vehicle id="veh315" type="scooter" route="r1" depart="707.7"/>
  <vehicle id="veh316" type="bus" route="r2" depart="712.3"/>
  <vehicle id="veh317" type="car" route="r10" depart="715.4"/>
  <vehicle id="veh318" type="scooter" route="r7" depart="719.6"/>
  <vehicle id="veh319" type="car" route="r3" depart="723.1"/>
  <vehicle id="veh320" type="car" route="r10" depart="727.3"/>
  <vehicle id="veh321" type="bus" route="r5" depart="729.7"/>
  <vehicle id="veh322" type="car" route="r2" depart="733.6"/>
  <vehicle id="veh323" type="bus" route="r9" depart="737.5"/>
  <vehicle id="veh324" type="bus" route="r8" depart="741.2"/>
  <vehicle id="veh325" type="car" route="r0" depart="743.7"/>
  <vehicle id="veh326" type="scooter" route="r8" depart="744.1"/>
  <vehicle id="veh327" type="car" route="r9" depart="745.9"/>
  <vehicle id="veh328" type="car" route="r5" depart="746.4"/>
  <vehicle id="veh329" type="car" route="r1" depart="747.6"/>
  <vehicle id="veh330" type="car" route="r10" depart="748.2"/>
  <vehicle id="veh331" type="car" route="r9" depart="751.5"/>
  <vehicle id="veh332" type="car" route="r9" depart="755.7"/>
  <vehicle id="veh333" type="car" route="r1" depart="756.3"/>
  <vehicle id="veh334" type="truck" route="r2" depart="759.1"/>
  <vehicle id="veh335" type="car" route="r4" depart="760.6"/>
  <vehicle id="veh336" type="car" route="r3" depart="763.3"/>
  <vehicle id="veh337" type="car" route="r6" depart="763.3"/>
  <vehicle id="veh338" type="car" route="r1" depart="765.4"/>
  <vehicle id="veh339" type="scooter" route="r1" depart="766.1"/>
  <vehicle id="veh340" type="car" route="r6" depart="766.9"/>
  <vehicle id="veh341" type="car" route="r11" depart="770.4"/>
  <vehicle id="veh342" type="scooter" route="r6" depart="772.5"/>
  <vehicle id="veh343" type="car" route="r3" depart="773.7"/>
  <vehicle id="veh344" type="car" route="r2" depart="778.1"/>
  <vehicle id="veh345" type="car" route="r4" depart="782.6"/>
  <vehicle id="veh346" type="bus" route="r9" depart="783.0"/>
  <vehicle id="veh347" type="bus" route="r11" depart="784.6"/>
  <vehicle id="veh348" type="bus" route="r10" depart="789.6"/>
  <vehicle id="veh349" type="car" route="r8" depart="791.3"/>
  <vehicle id="veh350" type="car" route="r8" depart="792.0"/>
  <vehicle id="veh351" type="scooter" route="r1" depart="793.7"/>
  <vehicle id="veh352" type="bus" route="r9" depart="795.0"/>
  <vehicle id="veh353" type="car" route="r10" depart="799.4"/>
  <vehicle id="veh354" type="scooter" route="r6" depart="801.1"/>
  <vehicle id="veh355" type="car" route="r1" depart="806.0"/>
  <vehicle id="veh356" type="car" route="r9" depart="810.5"/>
  <vehicle id="veh357" type="scooter" route="r7" depart="811.1"/>
  <vehicle id="veh358" type="bus" route="r3" depart="812.6"/>
  <vehicle id="veh359" type="bus" route="r3" depart="816.8"/>
  <vehicle id="veh360" type="car" route="r11" depart="820.0"/>
  <vehicle id="veh361" type="car" route="r7" depart="822.3"/>
  <vehicle id="veh362" type="car" route="r5" depart="827.2"/>
  <vehicle id="veh363" type="car" route="r5" depart="827.6"/>
  <vehicle id="veh364" type="car" route="r11" depart="827.6"/>
  <vehicle id="veh365" type="car" route="r4" depart="830.9"/>
  <vehicle id="veh366" type="bus" route="r6" depart="832.4"/>
  <vehicle id="veh367" type="truck" route="r11" depart="832.7"/>
  <vehicle id="veh368" type="car" route="r11" depart="836.0"/>
  <vehicle id="veh369" type="car" route="r4" depart="837.9"/>
  <vehicle id="veh370" type="car" route="r1" depart="839.9"/>
  <vehicle id="veh371" type="bus" route="r11" depart="843.9"/>
  <vehicle id="veh372" type="scooter" route="r3" depart="845.8"/>
  <vehicle id="veh373" type="scooter" route="r0" depart="848.0"/>
  <vehicle id="veh374" type="car" route="r2" depart="853.0"/>
  <vehicle id="veh375" type="scooter" route="r1" depart="853.1"/>
  <vehicle id="veh376" type="scooter" route="r0" depart="856.8"/>
  <vehicle id="veh377" type="bus" route="r4" depart="860.8"/>
  <vehicle id="veh378" type="scooter" route="r4" depart="863.8"/>
  <vehicle id="veh379" type="car" route="r10" depart="867.1"/>
  <vehicle id="veh380" type="bus" route="r2" depart="870.9"/>
  <vehicle id="veh381" type="bus" route="r10" depart="875.3"/>
  <vehicle id="veh382" type="car" route="r6" depart="879.4"/>
  <vehicle id="veh383" type="car" route="r7" depart="881.0"/>
  <vehicle id="veh384" type="car" route="r7" depart="885.7"/>
  <vehicle id="veh385" type="scooter" route="r5" depart="888.4"/>
  <vehicle id="veh386" type="car" route="r6" depart="890.5"/>
  <vehicle id="veh387" type="car" route="r1" depart="890.9"/>
  <vehicle id="veh388" type="scooter" route="r3" depart="892.0"/>
  <vehicle id="veh389" type="scooter" route="r8" depart="896.5"/>
  <vehicle id="veh390" type="scooter" route="r6" depart="901.1"/>
  <vehicle id="veh391" type="car" route="r0" depart="902.7"/>
  <vehicle id="veh392" type="bus" route="r9" depart="903.4"/>
  <vehicle id="veh393" type="car" route="r1" depart="904.4"/>
  <vehicle id="veh394" type="car" route="r8" depart="907.1"/>
  <vehicle id="veh395" type="bus" route="r11" depart="911.7"/>
  <vehicle id="veh396" type="car" route="r10" depart="915.1"/>
  <vehicle id="veh397" type="bus" route="r0" depart="919.0"/>
  <vehicle id="veh398" type="scooter" route="r6" depart="923.2"/>
  <vehicle id="veh399" type="car" route="r8" depart="926.9"/>
  <vehicle id="veh400" type="bus" route="r8" depart="927.0"/>
  <vehicle id="veh401" type="truck" route="r1" depart="929.6"/>
  <vehicle id="veh402" type="car" route="r10" depart="934.1"/>
  <vehicle id="veh403" type="scooter" route="r8" depart="938.3"/>
  <vehicle id="veh404" type="car" route="r7" depart="939.4"/>
  <vehicle id="veh405" type="car" route="r7" depart="943.8"/>
  <vehicle id="veh406" type="car" route="r5" depart="948.5"/>
  <vehicle id="veh407" type="truck" route="r7" depart="953.4"/>
  <vehicle id="veh408" type="car" route="r0" depart="953.7"/>
  <vehicle id="veh409" type="bus" route="r11" depart="956.2"/>
  <vehicle id="veh410" type="car" route="r6" depart="961.0"/>
  <vehicle id="veh411" type="car" route="r10" depart="961.4"/>
  <vehicle id="veh412" type="car" route="r0" depart="962.2"/>
  <vehicle id="veh413" type="bus" route="r3" depart="966.5"/>
  <vehicle id="veh414" type="car" route="r4" depart="970.5"/>
  <vehicle id="veh415" type="bus" route="r5" depart="974.7"/>
  <vehicle id="veh416" type="scooter" route="r2" depart="977.6"/>
  <vehicle id="veh417" type="car" route="r6" depart="981.1"/>
  <vehicle id="veh418" type="car" route="r8" depart="982.8"/>
  <vehicle id="veh419" type="car" route="r0" depart="984.9"/>
  <vehicle id="veh420" type="scooter" route="r11" depart="985.6"/>
  <vehicle id="veh421" type="car" route="r9" depart="986.7"/>
  <vehicle id="veh422" type="bus" route="r4" depart="987.9"/>
  <vehicle id="veh423" type="bus" route="r8" depart="989.7"/>
  <vehicle id="veh424" type="bus" route="r5" depart="990.9"/>
  <vehicle id="veh425" type="car" route="r2" depart="992.0"/>
  <vehicle id="veh426" type="bus" route="r1" depart="994.5"/>
  <vehicle id="veh427" type="scooter" route="r3" depart="996.0"/>
  <vehicle id="veh428" type="car" route="r5" depart="997.1"/>
  <vehicle id="veh429" type="scooter" route="r3" depart="997.9"/>
  <vehicle id="veh430" type="bus" route="r1" depart="999.0"/>
  <vehicle id="veh431" type="car" route="r3" depart="1003.6"/>
  <vehicle id="veh432" type="car" route="r2" depart="1006.0"/>
  <vehicle id="veh433" type="car" route="r8" depart="1008.8"/>
  <vehicle id="veh434" type="car" route="r6" depart="1011.4"/>
  <vehicle id="veh435" type="car" route="r1" depart="1014.8"/>
  <vehicle id="veh436" type="truck" route="r9" depart="1015.2"/>
  <vehicle id="veh437" type="scooter" route="r9" depart="1019.8"/>
  <vehicle id="veh438" type="bus" route="r3" depart="1022.3"/>
  <vehicle id="veh439" type="bus" route="r11" depart="1026.9"/>
  <vehicle id="veh440" type="car" route="r6" depart="1028.3"/>
  <vehicle id="veh441" type="car" route="r9" depart="1031.5"/>
  <vehicle id="veh442" type="bus" route="r7" depart="1033.1"/>
  <vehicle id="veh443" type="car" route="r9" depart="1036.5"/>
  <vehicle id="veh444" type="scooter" route="r2" depart="1039.6"/>
  <vehicle id="veh445" type="car" route="r11" depart="1044.3"/>
  <vehicle id="veh446" type="bus" route="r1" depart="1047.9"/>
  <vehicle id="veh447" type="car" route="r9" depart="1049.3"/>
  <vehicle id="veh448" type="car" route="r3" depart="1051.5"/>
  <vehicle id="veh449" type="car" route="r10" depart="1054.4"/>
  <vehicle id="veh450" type="scooter" route="r7" depart="1057.4"/>
  <vehicle id="veh451" type="car" route="r5" depart="1061.3"/>
  <vehicle id="veh452" type="car" route="r2" depart="1063.7"/>
  <vehicle id="veh453" type="car" route="r5" depart="1064.0"/>
  <vehicle id="veh454" type="car" route="r2" depart="1068.3"/>
  <vehicle id="veh455" type="bus" route="r3" depart="1071.9"/>
  <vehicle id="veh456" type="car" route="r1" depart="1072.8"/>
  <vehicle id="veh457" type="truck" route="r9" depart="1073.4"/>
  <vehicle id="veh458" type="scooter" route="r7" depart="1073.6"/>
  <vehicle id="veh459" type="bus" route="r10" depart="1074.5"/>
  <vehicle id="veh460" type="car" route="r10" depart="1079.2"/>
  <vehicle id="veh461" type="bus" route="r7" depart="1081.0"/>
  <vehicle id="veh462" type="truck" route="r3" depart="1083.9"/>
  <vehicle id="veh463" type="bus" route="r11" depart="1087.3"/>
  <vehicle id="veh464" type="scooter" route="r9" depart="1087.3"/>