<routes>
  <vType id="car" accel="1.0" decel="4.5" maxSpeed="25" length="5"/>
  <vType id="truck" accel="0.5" decel="3.0" maxSpeed="18" length="12"/>
  <vType id="bus" accel="0.8" decel="3.5" maxSpeed="20" length="10"/>
  <vType id="scooter" accel="1.5" decel="4.0" maxSpeed="30" length="2"/>
  <route id="r0" edges="-north east"/>
  <route id="r1" edges="-north south"/>
  <route id="r2" edges="-north west"/>
  <route id="r3" edges="-east north"/>
  <route id="r4" edges="-east south"/>
  <route id="r5" edges="-east west"/>
  <route id="r6" edges="-south north"/>
  <route id="r7" edges="-south east"/>
  <route id="r8" edges="-south west"/>
  <route id="r9" edges="-west north"/>
  <route id="r10" edges="-west east"/>
  <route id="r11" edges="-west south"/>
  <vehicle id="veh0" type="scooter" route="r2" depart="0.0"/>
  <vehicle id="veh1" type="truck" route="r5" depart="0.2"/>
  <vehicle id="veh2" type="car" route="r7" depart="5.1"/>
  <vehicle id="veh3" type="car" route="r7" depart="9.7"/>
  <vehicle id="veh4" type="car" route="r10" depart="10.0"/>
  <vehicle id="veh5" type="car" route="r7" depart="10.2"/>
  <vehicle id="veh6" type="car" route="r3" depart="11.7"/>
  <vehicle id="veh7" type="car" route="r2" depart="15.5"/>
  <vehicle id="veh8" type="scooter" route="r9" depart="20.1"/>
  <vehicle id="veh9" type="car" route="r5" depart="23.6"/>
  <vehicle id="veh10" type="car" route="r4" depart="26.3"/>
  <vehicle id="veh11" type="car" route="r1" depart="28.3"/>
  <vehicle id="veh12" type="scooter" route="r8" depart="31.5"/>
  <vehicle id="veh13" type="scooter" route="r3" depart="32.4"/>
  <vehicle id="veh14" type="scooter" route="r10" depart="33.6"/>
  <vehicle id="veh15" type="car" route="r11" depart="35.1"/>
  <vehicle id="veh16" type="bus" route="r10" depart="38.8"/>
  <vehicle id="veh17" type="bus" route="r5" depart="42.8"/>
  <vehicle id="veh18" type="bus" route="r2" depart="47.8"/>
  <vehicle id="veh19" type="bus" route="r7" depart="50.6"/>
  <vehicle id="veh20" type="bus" route="r3" depart="53.3"/>
  <vehicle id="veh21" type="truck" route="r6" depart="53.7"/>
  <vehicle id="veh22" type="scooter" route="r6" depart="54.8"/>
  <vehicle id="veh23" type="car" route="r3" depart="55.6"/>
  <vehicle id="veh24" type="scooter" route="r10" depart="59.9"/>
  <vehicle id="veh25" type="car" route="r2" depart="64.3"/>
  <vehicle id="veh26" type="truck" route="r3" depart="68.8"/>
  <vehicle id="veh27" type="car" route="r7" depart="69.4"/>
  <vehicle id="veh28" type="car" route="r1" depart="70.7"/>
  <vehicle id="veh29" type="car" route="r4" depart="74.8"/>
  <vehicle id="veh30" type="car" route="r3" depart="77.1"/>
  <vehicle id="veh31" type="truck" route="r2" depart="80.6"/>
  <vehicle id="veh32" type="bus" route="r10" depart="85.1"/>
  <vehicle id="veh33" type="car" route="r3" depart="85.5"/>
  <vehicle id="veh34" type="car" route="r3" depart="85.6"/>
  <vehicle id="veh35" type="car" route="r8" depart="88.7"/>
  <vehicle id="veh36" type="car" route="r4" depart="92.0"/>
  <vehicle id="veh37" type="truck" route="r2" depart="94.4"/>
  <vehicle id="veh38" type="car" route="r4" depart="97.7"/>
  <vehicle id="veh39" type="bus" route="r11" depart="102.1"/>
  <vehicle id="veh40" type="car" route="r1" depart="105.6"/>
  <vehicle id="veh41" type="bus" route="r4" depart="110.0"/>
  <vehicle id="veh42" type="truck" route="r0" depart="114.6"/>
  <vehicle id="veh43" type="scooter" route="r0" depart="114.6"/>
  <vehicle id="veh44" type="truck" route="r11" depart="117.1"/>
  <vehicle id="veh45" type="scooter" route="r6" depart="120.9"/>
  <vehicle id="veh46" type="truck" route="r5" depart="121.4"/>
  <vehicle id="veh47" type="car" route="r7" depart="124.1"/>
  <vehicle id="veh48" type="bus" route="r5" depart="126.9"/>
  <vehicle id="veh49" type="scooter" route="r3" depart="130.9"/>
  <vehicle id="veh50" type="car" route="r11" depart="132.5"/>
  <vehicle id="veh51" type="car" route="r9" depart="134.0"/>
  <vehicle id="veh52" type="truck" route="r7" depart="138.9"/>
  <vehicle id="veh53" type="bus" route="r1" depart="139.6"/>
  <vehicle id="veh54" type="car" route="r10" depart="144.0"/>
  <vehicle id="veh55" type="truck" route="r4" depart="146.8"/>
  <vehicle id="veh56" type="scooter" route="r8" depart="149.6"/>
  <vehicle id="veh57" type="scooter" route="r0" depart="152.5"/>
  <vehicle id="veh58" type="scooter" route="r0" depart="153.5"/>
  <vehicle id="veh59" type="car" route="r1" depart="158.4"/>
  <vehicle id="veh60" type="scooter" route="r8" depart="159.9"/>
  <vehicle id="veh61" type="scooter" route="r5" depart="163.2"/>
  <vehicle id="veh62" type="car" route="r11" depart="164.5"/>
  <vehicle id="veh63" type="bus" route="r6" depart="165.1"/>
  <vehicle id="veh64" type="car" route="r11" depart="169.9"/>
  <vehicle id="veh65" type="car" route="r11" depart="171.9"/>
  <vehicle id="veh66" type="car" route="r5" depart="175.2"/>
  <vehicle id="veh67" type="scooter" route="r5" depart="176.3"/>
  <vehicle id="veh68" type="bus" route="r11" depart="177.2"/>
  <vehicle id="veh69" type="car" route="r1" depart="178.1"/>
  <vehicle id="veh70" type="car" route="r10" depart="180.9"/>
  <vehicle id="veh71" type="bus" route="r7" depart="182.5"/>
  <vehicle id="veh72" type="car" route="r11" depart="186.3"/>
  <vehicle id="veh73" type="bus" route="r5" depart="188.3"/>
  <vehicle id="veh74" type="truck" route="r3" depart="189.7"/>
  <vehicle id="veh75" type="car" route="r9" depart="191.9"/>
  <vehicle id="veh76" type="bus" route="r8" depart="194.0"/>
  <vehicle id="veh77" type="scooter" route="r9" depart="194.9"/>
  <vehicle id="veh78" type="truck" route="r9" depart="195.6"/>
  <vehicle id="veh79" type="car" route="r3" depart="198.3"/>
  <vehicle id="veh80" type="bus" route="r3" depart="198.7"/>
  <vehicle id="veh81" type="scooter" route="r8" depart="202.5"/>
  <vehicle id="veh82" type="bus" route="r5" depart="203.8"/>
  <vehicle id="veh83" type="car" route="r3" depart="205.0"/>
  <vehicle id="veh84" type="bus" route="r4" depart="205.5"/>
  <vehicle id="veh85" type="bus" route="r3" depart="208.5"/>
  <vehicle id="veh86" type="bus" route="r10" depart="212.2"/>
  <vehicle id="veh87" type="car" route="r7" depart="216.1"/>
  <vehicle id="veh88" type="scooter" route="r3" depart="219.9"/>
  <vehicle id="veh89" type="truck" route="r10" depart="224.2"/>
  <vehicle id="veh90" type="car" route="r5" depart="227.4"/>
  <vehicle id="veh91" type="scooter" route="r6" depart="232.3"/>
  <vehicle id="veh92" type="car" route="r2" depart="233.6"/>
  <vehicle id="veh93" type="car" route="r9" depart="236.3"/>
  <vehicle id="veh94" type="bus" route="r3" depart="238.9"/>
  <vehicle id="veh95" type="car" route="r3" depart="241.3"/>
  <vehicle id="veh96" type="car" route="r9" depart="245.1"/>
  <vehicle id="veh97" type="truck" route="r11" depart="248.6"/>
  <vehicle id="veh98" type="scooter" route="r1" depart="252.5"/>
  <vehicle id="veh99" type="car" route="r11" depart="254.6"/>
  <vehicle id="veh100" type="bus" route="r1" depart="256.1"/>
  <vehicle id="veh101" type="bus" route="r11" depart="256.8"/>
  <vehicle id="veh102" type="scooter" route="r6" depart="260.5"/>
  <vehicle id="veh103" type="bus" route="r2" depart="261.4"/>
  <vehicle id="veh104" type="truck" route="r0" depart="262.8"/>
  <vehicle id="veh105" type="car" route="r2" depart="267.5"/>
  <vehicle id="veh106" type="bus" route="r9" depart="269.0"/>
  <vehicle id="veh107" type="scooter" route="r5" depart="270.4"/>
  <vehicle id="veh108" type="bus" route="r3" depart="274.3"/>
  <vehicle id="veh109" type="car" route="r7" depart="277.2"/>
  <vehicle id="veh110" type="car" route="r1" depart="279.9"/>
  <vehicle id="veh111" type="car" route="r11" depart="283.5"/>
  <vehicle id="veh112" type="scooter" route="r5" depart="284.0"/>
  <vehicle id="veh113" type="car" route="r0" depart="284.5"/>
  <vehicle id="veh114" type="car" route="r2" depart="287.5"/>
  <vehicle id="veh115" type="car" route="r2" depart="291.3"/>
  <vehicle id="veh116" type="car" route="r8" depart="295.3"/>
  <vehicle id="veh117" type="truck" route="r6" depart="298.5"/>
  <vehicle id="veh118" type="car" route="r11" depart="299.5"/>
  <vehicle id="veh119" type="car" route="r5" depart="302.0"/>
  <vehicle id="veh120" type="car" route="r2" depart="304.3"/>
  <vehicle id="veh121" type="car" route="r9" depart="309.1"/>
  <vehicle id="veh122" type="truck" route="r6" depart="312.5"/>
  <vehicle id="veh123" type="car" route="r1" depart="315.9"/>
  <vehicle id="veh124" type="bus" route="r11" depart="316.3"/>
  <vehicle id="veh125" type="car" route="r3" depart="317.7"/>
  <vehicle id="veh126" type="truck" route="r5" depart="319.9"/>
  <vehicle id="veh127" type="car" route="r4" depart="322.5"/>
  <vehicle id="veh128" type="scooter" route="r10" depart="326.3"/>
  <vehicle id="veh129" type="car" route="r9" depart="331.3"/>
  <vehicle id="veh130" type="car" route="r0" depart="335.6"/>
  <vehicle id="veh131" type="scooter" route="r3" depart="336.7"/>
  <vehicle id="veh132" type="car" route="r1" depart="339.4"/>
  <vehicle id="veh133" type="car" route="r10" depart="339.5"/>
  <vehicle id="veh134" type="car" route="r9" depart="341.0"/>
  <vehicle id="veh135" type="scooter" route="r6" depart="344.6"/>
  <vehicle id="veh136" type="car" route="r6" depart="345.6"/>
  <vehicle id="veh137" type="car" route="r10" depart="349.2"/>
  <vehicle id="veh138" type="car" route="r0" depart="350.1"/>
  <vehicle id="veh139" type="car" route="r8" depart="351.7"/>
  <vehicle id="veh140" type="car" route="r5" depart="355.9"/>
  <vehicle id="veh141" type="truck" route="r7" depart="358.8"/>
  <vehicle id="veh142" type="truck" route="r2" depart="359.7"/>
  <vehicle id="veh143" type="car" route="r1" depart="360.6"/>
  <vehicle id="veh144" type="car" route="r4" depart="361.6"/>
  <vehicle id="veh145" type="car" route="r7" depart="364.9"/>
  <vehicle id="veh146" type="truck" route="r7" depart="366.6"/>
  <vehicle id="veh147" type="bus" route="r5" depart="368.0"/>
  <vehicle id="veh148" type="car" route="r5" depart="372.2"/>
  <vehicle id="veh149" type="bus" route="r6" depart="376.1"/>
  <vehicle id="veh150" type="car" route="r0" depart="378.1"/>
  <vehicle id="veh151" type="scooter" route="r1" depart="380.6"/>
  <vehicle id="veh152" type="bus" route="r1" depart="384.0"/>
  <vehicle id="veh153" type="car" route="r7" depart="385.2"/>
  <vehicle id="veh154" type="truck" route="r4" depart="388.5"/>
  <vehicle id="veh155" type="car" route="r6" depart="389.4"/>
  <vehicle id="veh156" type="scooter" route="r4" depart="393.4"/>
  <vehicle id="veh157" type="scooter" route="r9" depart="393.8"/>
  <vehicle id="veh158" type="bus" route="r4" depart="395.7"/>
  <vehicle id="veh159" type="scooter" route="r3" depart="397.1"/>
  <vehicle id="veh160" type="bus" route="r9" depart="397.8"/>
  <vehicle id="veh161" type="truck" route="r10" depart="402.5"/>
  <vehicle id="veh162" type="truck" route="r10" depart="407.0"/>
  <vehicle id="veh163" type="car" route="r6" depart="407.1"/>
  <vehicle id="veh164" type="car" route="r9" depart="410.4"/>
  <vehicle id="veh165" type="scooter" route="r5" depart="414.6"/>
  <vehicle id="veh166" type="car" route="r10" depart="415.2"/>
  <vehicle id="veh167" type="truck" route="r7" depart="418.9"/>
  <vehicle id="veh168" type="scooter" route="r7" depart="419.5"/>
  <vehicle id="veh169" type="scooter" route="r2" depart="423.9"/>
  <vehicle id="veh170" type="car" route="r9" depart="426.1"/>
  <vehicle id="veh171" type="truck" route="r2" depart="427.1"/>
  <vehicle id="veh172" type="car" route="r8" depart="428.6"/>
  <vehicle id="veh173" type="car" route="r7" depart="433.3"/>
  <vehicle id="veh174" type="car" route="r11" depart="437.0"/>
  <vehicle id="veh175" type="truck" route="r9" depart="440.0"/>
  <vehicle id="veh176" type="car" route="r6" depart="444.2"/>
  <vehicle id="veh177" type="truck" route="r9" depart="447.6"/>
  <vehicle id="veh178" type="scooter" route="r7" depart="452.4"/>
  <vehicle id="veh179" type="car" route="r10" depart="454.1"/>
  <vehicle id="veh180" type="scooter" route="r9" depart="456.6"/>
  <vehicle id="veh181" type="car" route="r3" depart="457.2"/>
  <vehicle id="veh182" type="scooter" route="r6" depart="459.7"/>
  <vehicle id="veh183" type="scooter" route="r3" depart="462.6"/>
  <vehicle id="veh184" type="car" route="r9" depart="466.6"/>
  <vehicle id="veh185" type="bus" route="r4" depart="471.1"/>
  <vehicle id="veh186" type="car" route="r8" depart="474.4"/>
  <vehicle id="veh187" type="bus" route="r8" depart="475.5"/>
  <vehicle id="veh188" type="car" route="r11" depart="477.4"/>
  <vehicle id="veh189" type="truck" route="r3" depart="478.8"/>
  <vehicle id="veh190" type="car" route="r3" depart="479.2"/>
  <vehicle id="veh191" type="car" route="r3" depart="480.5"/>
  <vehicle id="veh192" type="car" route="r9" depart="481.6"/>
  <vehicle id="veh193" type="car" route="r11" depart="486.4"/>
  <vehicle id="veh194" type="truck" route="r3" depart="487.0"/>
  <vehicle id="veh195" type="scooter" route="r10" depart="490.1"/>
  <vehicle id="veh196" type="bus" route="r6" depart="493.1"/>
  <vehicle id="veh197" type="car" route="r0" depart="497.5"/>
  <vehicle id="veh198" type="scooter" route="r11" depart="499.3"/>
  <vehicle id="veh199" type="truck" route="r9" depart="500.8"/>
  <vehicle id="veh200" type="car" route="r1" depart="504.4"/>
  <vehicle id="veh201" type="car" route="r6" depart="508.8"/>
  <vehicle id="veh202" type="car" route="r8" depart="510.6"/>
  <vehicle id="veh203" type="scooter" route="r11" depart="513.5"/>
  <vehicle id="veh204" type="car" route="r9" depart="514.7"/>
  <vehicle id="veh205" type="car" route="r10" depart="516.3"/>
  <vehicle id="veh206" type="scooter" route="r0" depart="520.6"/>
  <vehicle id="veh207" type="car" route="r9" depart="524.9"/>
  <vehicle id="veh208" type="bus" route="r4" depart="525.7"/>
  <vehicle id="veh209" type="car" route="r6" depart="530.1"/>
  <vehicle id="veh210" type="car" route="r3" depart="532.9"/>
  <vehicle id="veh211" type="car" route="r9" depart="536.4"/>
  <vehicle id="veh212" type="car" route="r10" depart="537.2"/>
  <vehicle id="veh213" type="car" route="r8" depart="540.3"/>
  <vehicle id="veh214" type="car" route="r3" depart="542.3"/>
  <vehicle id="veh215" type="car" route="r6" depart="543.8"/>
  <vehicle id="veh216" type="car" route="r8" depart="544.3"/>
  <vehicle id="veh217" type="car" route="r11" depart="546.5"/>
  <vehicle id="veh218" type="car" route="r0" depart="548.1"/>
  <vehicle id="veh219" type="car" route="r6" depart="551.7"/>
  <vehicle id="veh220" type="scooter" route="r6" depart="556.3"/>
  <vehicle id="veh221" type="car" route="r2" depart="560.6"/>
  <vehicle id="veh222" type="car" route="r3" depart="564.8"/>
  <vehicle id="veh223" type="scooter" route="r4" depart="565.6"/>
  <vehicle id="veh224" type="scooter" route="r10" depart="568.7"/>
  <vehicle id="veh225" type="scooter" route="r5" depart="570.7"/>
  <vehicle id="veh226" type="scooter" route="r6" depart="572.9"/>
  <vehicle id="veh227" type="car" route="r3" depart="574.5"/>
  <vehicle id="veh228" type="car" route="r9" depart="579.2"/>
  <vehicle id="veh229" type="car" route="r2" depart="580.5"/>
  <vehicle id="veh230" type="scooter" route="r9" depart="581.6"/>
  <vehicle id="veh231" type="truck" route="r5" depart="583.4"/>
  <vehicle id="veh232" type="car" route="r4" depart="585.9"/>
  <vehicle id="veh233" type="car" route="r8" depart="588.8"/>
  <vehicle id="veh234" type="car" route="r0" depart="590.3"/>
  <vehicle id="veh235" type="car" route="r11" depart="592.3"/>
  <vehicle id="veh236" type="scooter" route="r4" depart="596.7"/>
  <vehicle id="veh237" type="scooter" route="r2" depart="598.8"/>
  <vehicle id="veh238" type="scooter" route="r10" depart="601.4"/>
  <vehicle id="veh239" type="truck" route="r11" depart="601.9"/>
  <vehicle id="veh240" type="scooter" route="r6" depart="606.0"/>
  <vehicle id="veh241" type="bus" route="r11" depart="609.7"/>
  <vehicle id="veh242" type="car" route="r3" depart="613.1"/>
  <vehicle id="veh243" type="car" route="r4" depart="616.9"/>
  <vehicle id="veh244" type="car" route="r8" depart="619.7"/>
  <vehicle id="veh245" type="car" route="r10" depart="621.4"/>
  <vehicle id="veh246" type="bus" route="r10" depart="623.8"/>
  <vehicle id="veh247" type="car" route="r7" depart="627.3"/>
  <vehicle id="veh248" type="bus" route="r2" depart="630.4"/>
  <vehicle id="veh249" type="car" route="r5" depart="633.3"/>
  <vehicle id="veh250" type="truck" route="r6" depart="637.3"/>
  <vehicle id="veh251" type="bus" route="r0" depart="641.4"/>
  <vehicle id="veh252" type="bus" route="r11" depart="643.2"/>
  <vehicle id="veh253" type="scooter" route="r3" depart="644.6"/>
  <vehicle id="veh254" type="car" route="r8" depart="644.7"/>
  <vehicle id="veh255" type="bus" route="r6" depart="647.2"/>
  <vehicle id="veh256" type="truck" route="r3" depart="649.1"/>
  <vehicle id="veh257" type="scooter" route="r8" depart="651.6"/>
  <vehicle id="veh258" type="car" route="r7" depart="653.8"/>
  <vehicle id="veh259" type="bus" route="r3" depart="656.4"/>
  <vehicle id="veh260" type="car" route="r6" depart="656.6"/>
  <vehicle id="veh261" type="scooter" route="r2" depart="661.2"/>
  <vehicle id="veh262" type="car" route="r1" depart="662.0"/>
  <vehicle id="veh263" type="truck" route="r9" depart="662.3"/>
  <vehicle id="veh264" type="scooter" route="r5" depart="666.3"/>
  <vehicle id="veh265" type="car" route="r6" depart="669.3"/>
  <vehicle id="veh266" type="car" route="r9" depart="672.7"/>
  <vehicle id="veh267" type="scooter" route="r5" depart="675.4"/>
  <vehicle id="veh268" type="car" route="r9" depart="677.2"/>
  <vehicle id="veh269" type="scooter" route="r5" depart="678.3"/>
  <vehicle id="veh270" type="truck" route="r7" depart="681.3"/>
  <vehicle id="veh271" type="scooter" route="r1" depart="683.2"/>
  <vehicle id="veh272" type="scooter" route="r6" depart="686.1"/>
  <vehicle id="veh273" type="bus" route="r0" depart="688.2"/>
  <vehicle id="veh274" type="car" route="r7" depart="692.1"/>
  <vehicle id="veh275" type="scooter" route="r2" depart="692.3"/>
  <vehicle id="veh276" type="car" route="r6" depart="693.9"/>
  <vehicle id="veh277" type="bus" route="r9" depart="695.5"/>
  <vehicle id="veh278" type="scooter" route="r9" depart="697.7"/>
  <vehicle id="veh279" type="car" route="r9" depart="698.9"/>
  <vehicle id="veh280" type="car" route="r7" depart="701.5"/>
  <vehicle id="veh281" type="car" route="r5" depart="703.5"/>
  <vehicle id="veh282" type="car" route="r0" depart="704.5"/>
  <vehicle id="veh283" type="car" route="r9" depart="706.7"/>
  <vehicle id="veh284" type="truck" route="r8" depart="707.4"/>
  <vehicle id="veh285" type="car" route="r10" depart="711.0"/>
  <vehicle id="veh286" type="car" route="r11" depart="713.2"/>
  <vehicle id="veh287" type="car" route="r0" depart="715.1"/>
  <vehicle id="veh288" type="car" route="r10" depart="718.2"/>
  <vehicle id="veh289" type="truck" route="r0" depart="718.6"/>
  <vehicle id="veh290" type="bus" route="r8" depart="720.8"/>
  <vehicle id="veh291" type="truck" route="r10" depart="723.2"/>
  <vehicle id="veh292" type="truck" route="r9" depart="723.9"/>
  <vehicle id="veh293" type="bus" route="r7" depart="725.2"/>
  <vehicle id="veh294" type="car" route="r11" depart="727.8"/>
  <vehicle id="veh295" type="car" route="r0" depart="730.4"/>
  <vehicle id="veh296" type="car" route="r9" depart="734.4"/>
  <vehicle id="veh297" type="bus" route="r10" depart="738.6"/>
  <vehicle id="veh298" type="truck" route="r7" depart="739.9"/>
  <vehicle id="veh299" type="scooter" route="r5" depart="744.6"/>
</routes>
