<routes>
  <vType id="car" accel="1.0" decel="4.5" maxSpeed="25" length="5"/>
  <vType id="truck" accel="0.5" decel="3.0" maxSpeed="18" length="12"/>
  <vType id="bus" accel="0.8" decel="3.5" maxSpeed="20" length="10"/>
  <vType id="scooter" accel="1.5" decel="4.0" maxSpeed="30" length="2"/>
  <route id="r0" edges="-north east"/>
  <route id="r1" edges="-north south"/>
  <route id="r2" edges="-north west"/>
  <route id="r3" edges="-east north"/>
  <route id="r4" edges="-east south"/>
  <route id="r5" edges="-east west"/>
  <route id="r6" edges="-south north"/>
  <route id="r7" edges="-south east"/>
  <route id="r8" edges="-south west"/>
  <route id="r9" edges="-west north"/>
  <route id="r10" edges="-west east"/>
  <route id="r11" edges="-west south"/>
  <vehicle id="veh0" type="car" route="r5" depart="0.0"/>
  <vehicle id="veh1" type="car" route="r3" depart="4.4"/>
  <vehicle id="veh2" type="bus" route="r7" depart="6.4"/>
  <vehicle id="veh3" type="car" route="r3" depart="7.3"/>
  <vehicle id="veh4" type="bus" route="r10" depart="8.3"/>
  <vehicle id="veh5" type="scooter" route="r5" depart="12.5"/>
  <vehicle id="veh6" type="scooter" route="r8" depart="12.9"/>
  <vehicle id="veh7" type="truck" route="r10" depart="13.3"/>
  <vehicle id="veh8" type="car" route="r9" depart="14.4"/>
  <vehicle id="veh9" type="car" route="r1" depart="17.6"/>
  <vehicle id="veh10" type="car" route="r11" depart="18.4"/>
  <vehicle id="veh11" type="car" route="r2" depart="23.0"/>
  <vehicle id="veh12" type="car" route="r7" depart="26.4"/>
  <vehicle id="veh13" type="car" route="r3" depart="31.0"/>
  <vehicle id="veh14" type="car" route="r2" depart="32.0"/>
  <vehicle id="veh15" type="scooter" route="r11" depart="36.9"/>
  <vehicle id="veh16" type="bus" route="r10" depart="37.7"/>
  <vehicle id="veh17" type="car" route="r0" depart="41.4"/>
  <vehicle id="veh18" type="car" route="r6" depart="46.3"/>
  <vehicle id="veh19" type="bus" route="r10" depart="50.3"/>
  <vehicle id="veh20" type="car" route="r11" depart="54.9"/>
  <vehicle id="veh21" type="bus" route="r2" depart="56.4"/>
  <vehicle id="veh22" type="bus" route="r10" depart="57.8"/>
  <vehicle id="veh23" type="car" route="r8" depart="61.2"/>
  <vehicle id="veh24" type="truck" route="r8" depart="61.2"/>
  <vehicle id="veh25" type="car" route="r4" depart="62.5"/>
  <vehicle id="veh26" type="scooter" route="r5" depart="64.3"/>
  <vehicle id="veh27" type="car" route="r2" depart="68.3"/>
  <vehicle id="veh28" type="car" route="r11" depart="68.7"/>
  <vehicle id="veh29" type="car" route="r0" depart="73.2"/>
  <vehicle id="veh30" type="car" route="r9" depart="73.6"/>
  <vehicle id="veh31" type="bus" route="r4" depart="74.9"/>
  <vehicle id="veh32" type="car" route="r9" depart="79.6"/>
  <vehicle id="veh33" type="car" route="r8" depart="80.4"/>
  <vehicle id="veh34" type="car" route="r0" depart="85.0"/>
  <vehicle id="veh35" type="bus" route="r9" depart="86.7"/>
  <vehicle id="veh36" type="scooter" route="r3" depart="90.7"/>
  <vehicle id="veh37" type="car" route="r6" depart="92.9"/>
  <vehicle id="veh38" type="car" route="r3" depart="96.8"/>
  <vehicle id="veh39" type="scooter" route="r2" depart="100.0"/>
  <vehicle id="veh40" type="car" route="r7" depart="103.9"/>
  <vehicle id="veh41" type="car" route="r8" depart="105.3"/>
  <vehicle id="veh42" type="bus" route="r6" depart="110.1"/>
  <vehicle id="veh43" type="bus" route="r10" depart="110.6"/>
  <vehicle id="veh44" type="scooter" route="r0" depart="115.4"/>
  <vehicle id="veh45" type="car" route="r4" depart="119.1"/>
  <vehicle id="veh46" type="bus" route="r6" depart="121.1"/>
  <vehicle id="veh47" type="car" route="r0" depart="124.1"/>
  <vehicle id="veh48" type="bus" route="r4" depart="128.4"/>
  <vehicle id="veh49" type="car" route="r3" depart="130.2"/>
  <vehicle id="veh50" type="car" route="r11" depart="134.3"/>
  <vehicle id="veh51" type="car" route="r11" depart="136.6"/>
  <vehicle id="veh52" type="car" route="r6" depart="141.5"/>
  <vehicle id="veh53" type="car" route="r6" depart="144.5"/>
  <vehicle id="veh54" type="car" route="r7" depart="145.8"/>
  <vehicle id="veh55" type="car" route="r2" depart="149.1"/>
  <vehicle id="veh56" type="car" route="r4" depart="152.6"/>
  <vehicle id="veh57" type="scooter" route="r9" depart="155.9"/>
  <vehicle id="veh58" type="bus" route="r10" depart="158.4"/>
  <vehicle id="veh59" type="bus" route="r5" depart="163.3"/>
  <vehicle id="veh60" type="bus" route="r11" depart="168.2"/>
  <vehicle id="veh61" type="car" route="r4" depart="168.8"/>
  <vehicle id="veh62" type="scooter" route="r5" depart="169.7"/>
  <vehicle id="veh63" type="car" route="r5" depart="170.2"/>
  <vehicle id="veh64" type="bus" route="r8" depart="173.4"/>
  <vehicle id="veh65" type="truck" route="r4" depart="177.7"/>
  <vehicle id="veh66" type="car" route="r4" depart="178.5"/>
  <vehicle id="veh67" type="bus" route="r4" depart="181.7"/>
  <vehicle id="veh68" type="car" route="r5" depart="186.3"/>
  <vehicle id="veh69" type="car" route="r7" depart="187.7"/>
  <vehicle id="veh70" type="scooter" route="r7" depart="188.7"/>
  <vehicle id="veh71" type="scooter" route="r2" depart="192.0"/>
  <vehicle id="veh72" type="truck" route="r2" depart="192.3"/>
  <vehicle id="veh73" type="scooter" route="r11" depart="194.4"/>
  <vehicle id="veh74" type="scooter" route="r8" depart="195.8"/>
  <vehicle id="veh75" type="car" route="r11" depart="200.3"/>
  <vehicle id="veh76" type="bus" route="r1" depart="203.1"/>
  <vehicle id="veh77" type="car" route="r10" depart="204.1"/>
  <vehicle id="veh78" type="car" route="r11" depart="207.6"/>
  <vehicle id="veh79" type="scooter" route="r5" depart="212.4"/>
  <vehicle id="veh80" type="car" route="r10" depart="213.7"/>
  <vehicle id="veh81" type="scooter" route="r4" depart="218.0"/>
  <vehicle id="veh82" type="car" route="r3" depart="220.2"/>
  <vehicle id="veh83" type="scooter" route="r4" depart="224.9"/>
  <vehicle id="veh84" type="car" route="r2" depart="228.1"/>
  <vehicle id="veh85" type="truck" route="r8" depart="228.2"/>
  <vehicle id="veh86" type="bus" route="r0" depart="228.3"/>
  <vehicle id="veh87" type="car" route="r5" depart="230.8"/>
  <vehicle id="veh88" type="scooter" route="r10" depart="232.0"/>
  <vehicle id="veh89" type="car" route="r10" depart="233.7"/>
  <vehicle id="veh90" type="car" route="r4" depart="235.9"/>
  <vehicle id="veh91" type="car" route="r11" depart="238.2"/>
  <vehicle id="veh92" type="bus" route="r6" depart="241.7"/>
  <vehicle id="veh93" type="bus" route="r3" depart="246.1"/>
  <vehicle id="veh94" type="car" route="r11" depart="246.5"/>
  <vehicle id="veh95" type="car" route="r4" depart="248.0"/>
  <vehicle id="veh96" type="scooter" route="r8" depart="248.8"/>
  <vehicle id="veh97" type="car" route="r5" depart="252.0"/>
  <vehicle id="veh98" type="bus" route="r6" depart="256.9"/>
  <vehicle id="veh99" type="car" route="r6" depart="259.6"/>
  <vehicle id="veh100" type="car" route="r0" depart="262.0"/>
  <vehicle id="veh101" type="bus" route="r11" depart="264.3"/>
  <vehicle id="veh102" type="scooter" route="r6" depart="266.8"/>
  <vehicle id="veh103" type="bus" route="r8" depart="268.0"/>
  <vehicle id="veh104" type="bus" route="r1" depart="268.6"/>
  <vehicle id="veh105" type="bus" route="r11" depart="270.3"/>
  <vehicle id="veh106" type="car" route="r7" depart="271.1"/>
  <vehicle id="veh107" type="bus" route="r9" depart="272.9"/>
  <vehicle id="veh108" type="car" route="r9" depart="274.0"/>
  <vehicle id="veh109" type="car" route="r10" depart="276.9"/>
  <vehicle id="veh110" type="bus" route="r10" depart="278.2"/>
  <vehicle id="veh111" type="car" route="r7" depart="281.6"/>
  <vehicle id="veh112" type="car" route="r5" depart="282.1"/>
  <vehicle id="veh113" type="scooter" route="r6" depart="286.1"/>
  <vehicle id="veh114" type="car" route="r8" depart="290.0"/>
  <vehicle id="veh115" type="scooter" route="r9" depart="294.5"/>
  <vehicle id="veh116" type="scooter" route="r0" depart="299.1"/>
  <vehicle id="veh117" type="scooter" route="r7" depart="300.8"/>
  <vehicle id="veh118" type="bus" route="r4" depart="301.4"/>
  <vehicle id="veh119" type="bus" route="r5" depart="301.7"/>
  <vehicle id="veh120" type="car" route="r7" depart="301.7"/>
  <vehicle id="veh121" type="car" route="r8" depart="302.3"/>
  <vehicle id="veh122" type="truck" route="r8" depart="303.3"/>
  <vehicle id="veh123" type="bus" route="r9" depart="307.2"/>
  <vehicle id="veh124" type="car" route="r7" depart="310.8"/>
  <vehicle id="veh125" type="car" route="r6" depart="312.5"/>
  <vehicle id="veh126" type="car" route="r9" depart="316.5"/>
  <vehicle id="veh127" type="bus" route="r9" depart="318.0"/>
  <vehicle id="veh128" type="bus" route="r9" depart="318.5"/>
  <vehicle id="veh129" type="car" route="r8" depart="319.6"/>
  <vehicle id="veh130" type="truck" route="r6" depart="322.9"/>
  <vehicle id="veh131" type="scooter" route="r11" depart="326.5"/>
  <vehicle id="veh132" type="scooter" route="r2" depart="330.6"/>
  <vehicle id="veh133" type="scooter" route="r1" depart="335.6"/>
  <vehicle id="veh134" type="scooter" route="r9" depart="336.4"/>
  <vehicle id="veh135" type="bus" route="r3" depart="338.3"/>
  <vehicle id="veh136" type="scooter" route="r10" depart="338.9"/>
  <vehicle id="veh137" type="car" route="r7" depart="341.6"/>
  <vehicle id="veh138" type="scooter" route="r8" depart="344.5"/>
  <vehicle id="veh139" type="bus" route="r8" depart="348.2"/>
  <vehicle id="veh140" type="car" route="r1" depart="351.4"/>
  <vehicle id="veh141" type="bus" route="r10" depart="355.5"/>
  <vehicle id="veh142" type="truck" route="r9" depart="359.5"/>
  <vehicle id="veh143" type="car" route="r5" depart="359.8"/>
  <vehicle id="veh144" type="scooter" route="r7" depart="362.9"/>
  <vehicle id="veh145" type="bus" route="r11" depart="363.1"/>
  <vehicle id="veh146" type="car" route="r8" depart="367.2"/>
  <vehicle id="veh147" type="car" route="r8" depart="369.3"/>
  <vehicle id="veh148" type="scooter" route="r4" depart="371.3"/>
  <vehicle id="veh149" type="car" route="r4" depart="372.2"/>
  <vehicle id="veh150" type="truck" route="r3" depart="374.7"/>
  <vehicle id="veh151" type="car" route="r0" depart="379.2"/>
  <vehicle id="veh152" type="scooter" route="r8" depart="383.6"/>
  <vehicle id="veh153" type="car" route="r7" depart="387.8"/>
  <vehicle id="veh154" type="car" route="r10" depart="392.7"/>
  <vehicle id="veh155" type="bus" route="r0" depart="395.3"/>
  <vehicle id="veh156" type="car" route="r6" depart="396.7"/>
  <vehicle id="veh157" type="car" route="r7" depart="401.0"/>
  <vehicle id="veh158" type="car" route="r0" depart="404.4"/>
  <vehicle id="veh159" type="car" route="r8" depart="408.8"/>
  <vehicle id="veh160" type="bus" route="r10" depart="413.3"/>
  <vehicle id="veh161" type="bus" route="r3" depart="415.0"/>
  <vehicle id="veh162" type="car" route="r0" depart="417.3"/>
  <vehicle id="veh163" type="car" route="r1" depart="418.7"/>
  <vehicle id="veh164" type="bus" route="r0" depart="420.7"/>
  <vehicle id="veh165" type="scooter" route="r2" depart="421.9"/>
  <vehicle id="veh166" type="car" route="r1" depart="423.5"/>
  <vehicle id="veh167" type="car" route="r3" depart="423.7"/>
  <vehicle id="veh168" type="car" route="r1" depart="426.4"/>
  <vehicle id="veh169" type="scooter" route="r8" depart="430.9"/>
  <vehicle id="veh170" type="car" route="r10" depart="434.9"/>
  <vehicle id="veh171" type="bus" route="r5" depart="439.8"/>
  <vehicle id="veh172" type="car" route="r2" depart="442.5"/>
  <vehicle id="veh173" type="car" route="r0" depart="445.3"/>
  <vehicle id="veh174" type="truck" route="r11" depart="445.5"/>
  <vehicle id="veh175" type="car" route="r2" depart="449.1"/>
  <vehicle id="veh176" type="scooter" route="r6" depart="452.4"/>
  <vehicle id="veh177" type="car" route="r6" depart="453.0"/>
  <vehicle id="veh178" type="scooter" route="r11" depart="456.5"/>
  <vehicle id="veh179" type="car" route="r0" depart="461.4"/>
  <vehicle id="veh180" type="bus" route="r9" depart="462.9"/>
  <vehicle id="veh181" type="car" route="r5" depart="465.3"/>
  <vehicle id="veh182" type="car" route="r6" depart="469.1"/>
  <vehicle id="veh183" type="car" route="r0" depart="472.5"/>
  <vehicle id="veh184" type="car" route="r4" depart="474.8"/>
  <vehicle id="veh185" type="car" route="r1" depart="476.7"/>
  <vehicle id="veh186" type="scooter" route="r5" depart="479.5"/>
  <vehicle id="veh187" type="scooter" route="r10" depart="481.9"/>
  <vehicle id="veh188" type="car" route="r8" depart="483.1"/>
  <vehicle id="veh189" type="bus" route="r4" depart="487.9"/>
  <vehicle id="veh190" type="car" route="r6" depart="491.7"/>
  <vehicle id="veh191" type="scooter" route="r1" depart="493.9"/>
  <vehicle id="veh192" type="bus" route="r5" depart="498.3"/>
  <vehicle id="veh193" type="car" route="r0" depart="499.1"/>
  <vehicle id="veh194" type="car" route="r10" depart="502.6"/>
  <vehicle id="veh195" type="bus" route="r0" depart="506.9"/>
  <vehicle id="veh196" type="scooter" route="r3" depart="508.0"/>
  <vehicle id="veh197" type="truck" route="r11" depart="511.3"/>
  <vehicle id="veh198" type="car" route="r0" depart="512.9"/>
  <vehicle id="veh199" type="truck" route="r8" depart="517.6"/>
  <vehicle id="veh200" type="car" route="r5" depart="522.3"/>
  <vehicle id="veh201" type="car" route="r3" depart="522.6"/>
  <vehicle id="veh202" type="scooter" route="r8" depart="522.6"/>
  <vehicle id="veh203" type="car" route="r10" depart="523.4"/>
  <vehicle id="veh204" type="bus" route="r3" depart="524.3"/>
  <vehicle id="veh205" type="car" route="r6" depart="526.7"/>
  <vehicle id="veh206" type="truck" route="r9" depart="530.6"/>
  <vehicle id="veh207" type="scooter" route="r4" depart="534.8"/>
  <vehicle id="veh208" type="car" route="r0" depart="539.4"/>
  <vehicle id="veh209" type="scooter" route="r1" depart="539.8"/>
  <vehicle id="veh210" type="bus" route="r1" depart="540.7"/>
  <vehicle id="veh211" type="car" route="r11" depart="544.6"/>
  <vehicle id="veh212" type="car" route="r9" depart="546.9"/>
  <vehicle id="veh213" type="car" route="r0" depart="549.7"/>
  <vehicle id="veh214" type="car" route="r2" depart="551.2"/>
  <vehicle id="veh215" type="car" route="r6" depart="555.4"/>
  <vehicle id="veh216" type="car" route="r2" depart="555.6"/>
  <vehicle id="veh217" type="car" route="r9" depart="557.6"/>
  <vehicle id="veh218" type="scooter" route="r0" depart="561.2"/>
  <vehicle id="veh219" type="car" route="r6" depart="562.8"/>
  <vehicle id="veh220" type="bus" route="r10" depart="566.1"/>
  <vehicle id="veh221" type="bus" route="r10" depart="568.0"/>
  <vehicle id="veh222" type="bus" route="r0" depart="571.8"/>
  <vehicle id="veh223" type="bus" route="r0" depart="573.1"/>
  <vehicle id="veh224" type="truck" route="r5" depart="575.2"/>
  <vehicle id="veh225" type="car" route="r9" depart="575.2"/>
  <vehicle id="veh226" type="car" route="r0" depart="575.6"/>
  <vehicle id="veh227" type="bus" route="r3" depart="577.4"/>
  <vehicle id="veh228" type="car" route="r10" depart="579.6"/>
  <vehicle id="veh229" type="car" route="r1" depart="580.2"/>
  <vehicle id="veh230" type="scooter" route="r8" depart="584.9"/>
  <vehicle id="veh231" type="car" route="r9" depart="585.5"/>
  <vehicle id="veh232" type="scooter" route="r2" depart="587.5"/>
  <vehicle id="veh233" type="car" route="r7" depart="591.2"/>
  <vehicle id="veh234" type="truck" route="r0" depart="593.0"/>
  <vehicle id="veh235" type="car" route="r4" depart="594.2"/>
  <vehicle id="veh236" type="car" route="r3" depart="595.9"/>
  <vehicle id="veh237" type="car" route="r6" depart="599.2"/>
  <vehicle id="veh238" type="scooter" route="r2" depart="603.2"/>
  <vehicle id="veh239" type="bus" route="r1" depart="605.9"/>
  <vehicle id="veh240" type="car" route="r0" depart="606.3"/>
  <vehicle id="veh241" type="bus" route="r5" depart="609.5"/>
  <vehicle id="veh242" type="car" route="r8" depart="610.5"/>
  <vehicle id="veh243" type="car" route="r7" depart="612.3"/>
  <vehicle id="veh244" type="car" route="r11" depart="615.4"/>
  <vehicle id="veh245" type="scooter" route="r3" depart="616.6"/>
  <vehicle id="veh246" type="scooter" route="r10" depart="620.2"/>
  <vehicle id="veh247" type="scooter" route="r10" depart="624.3"/>
  <vehicle id="veh248" type="car" route="r6" depart="625.2"/>
  <vehicle id="veh249" type="car" route="r6" depart="626.8"/>
  <vehicle id="veh250" type="scooter" route="r7" depart="629.9"/>
  <vehicle id="veh251" type="car" route="r8" depart="631.1"/>
  <vehicle id="veh252" type="car" route="r2" depart="634.6"/>
  <vehicle id="veh253" type="scooter" route="r0" depart="639.6"/>
  <vehicle id="veh254" type="car" route="r2" depart="640.9"/>
  <vehicle id="veh255" type="car" route="r2" depart="644.9"/>
  <vehicle id="veh256" type="scooter" route="r10" depart="646.7"/>
  <vehicle id="veh257" type="car" route="r4" depart="647.2"/>
  <vehicle id="veh258" type="car" route="r9" depart="650.5"/>
  <vehicle id="veh259" type="scooter" route="r7" depart="651.5"/>
  <vehicle id="veh260" type="car" route="r4" depart="653.8"/>
  <vehicle id="veh261" type="car" route="r4" depart="657.1"/>
  <vehicle id="veh262" type="bus" route="r11" depart="661.0"/>
  <vehicle id="veh263" type="bus" route="r1" depart="663.1"/>
  <vehicle id="veh264" type="bus" route="r7" depart="666.6"/>
  <vehicle id="veh265" type="car" route="r1" depart="671.5"/>
  <vehicle id="veh266" type="truck" route="r11" depart="675.1"/>
  <vehicle id="veh267" type="scooter" route="r4" depart="676.7"/>
  <vehicle id="veh268" type="scooter" route="r11" depart="676.7"/>
  <vehicle id="veh269" type="bus" route="r6" depart="679.8"/>
  <vehicle id="veh270" type="bus" route="r10" depart="682.9"/>
  <vehicle id="veh271" type="scooter" route="r1" depart="687.7"/>
  <vehicle id="veh272" type="car" route="r4" depart="689.8"/>
  <vehicle id="veh273" type="car" route="r3" depart="693.1"/>
  <vehicle id="veh274" type="car" route="r2" depart="697.7"/>
  <vehicle id="veh275" type="bus" route="r11" depart="700.8"/>
  <vehicle id="veh276" type="bus" route="r0" depart="701.1"/>
  <vehicle id="veh277" type="car" route="r8" depart="704.1"/>
  <vehicle id="veh278" type="car" route="r6" depart="705.0"/>
  <vehicle id="veh279" type="bus" route="r10" depart="706.1"/>
  <vehicle id="veh280" type="car" route="r9" depart="711.0"/>
  <vehicle id="veh281" type="car" route="r7" depart="715.5"/>
  <vehicle id="veh282" type="car" route="r2" depart="716.1"/>
  <vehicle id="veh283" type="car" route="r2" depart="716.8"/>
  <vehicle id="veh284" type="bus" route="r4" depart="718.7"/>
  <vehicle id="veh285" type="scooter" route="r3" depart="723.6"/>
  <vehicle id="veh286" type="car" route="r2" depart="726.7"/>
  <vehicle id="veh287" type="truck" route="r6" depart="729.9"/>
  <vehicle id="veh288" type="car" route="r11" depart="734.2"/>
  <vehicle id="veh289" type="car" route="r2" depart="734.7"/>
  <vehicle id="veh290" type="scooter" route="r5" depart="737.4"/>
  <vehicle id="veh291" type="bus" route="r1" depart="742.0"/>
  <vehicle id="veh292" type="scooter" route="r5" depart="745.1"/>
  <vehicle id="veh293" type="truck" route="r1" depart="749.7"/>
  <vehicle id="veh294" type="car" route="r8" depart="752.6"/>
  <vehicle id="veh295" type="truck" route="r7" depart="752.9"/>
  <vehicle id="veh296" type="car" route="r11" depart="755.2"/>
  <vehicle id="veh297" type="car" route="r0" depart="758.6"/>
  <vehicle id="veh298" type="truck" route="r5" depart="762.2"/>
  <vehicle id="veh299" type="bus" route="r2" depart="765.2"/>
  <vehicle id="veh300" type="car" route="r8" depart="767.2"/>
  <vehicle id="veh301" type="car" route="r3" depart="772.1"/>
  <vehicle id="veh302" type="car" route="r4" depart="772.5"/>
  <vehicle id="veh303" type="bus" route="r2" depart="777.2"/>
  <vehicle id="veh304" type="scooter" route="r8" depart="780.0"/>
  <vehicle id="veh305" type="truck" route="r6" depart="783.6"/>
  <vehicle id="veh306" type="car" route="r9" depart="788.5"/>
  <vehicle id="veh307" type="truck" route="r6" depart="789.6"/>
  <vehicle id="veh308" type="car" route="r10" depart="794.5"/>
  <vehicle id="veh309" type="bus" route="r5" depart="797.1"/>
  <vehicle id="veh310" type="car" route="r2" depart="797.7"/>
  <vehicle id="veh311" type="car" route="r8" depart="800.7"/>
  <vehicle id="veh312" type="car" route="r2" depart="804.3"/>
  <vehicle id="veh313" type="truck" route="r8" depart="806.7"/>
  <vehicle id="veh314" type="scooter" route="r0" depart="810.3"/>
  <vehicle id="veh315" type="car" route="r6" depart="811.3"/>
  <vehicle id="veh316" type="car" route="r8" depart="814.3"/>
  <vehicle id="veh317" type="bus" route="r9" depart="819.3"/>
  <vehicle id="veh318" type="car" route="r3" depart="823.3"/>
  <vehicle id="veh319" type="car" route="r2" depart="826.7"/>
  <vehicle id="veh320" type="car" route="r6" depart="827.5"/>
  <vehicle id="veh321" type="truck" route="r7" depart="829.5"/>
  <vehicle id="veh322" type="car" route="r11" depart="829.9"/>
  <vehicle id="veh323" type="scooter" route="r1" depart="830.3"/>
  <vehicle id="veh324" type="bus" route="r9" depart="834.2"/>
  <vehicle id="veh325" type="truck" route="r4" depart="837.4"/>
  <vehicle id="veh326" type="car" route="r2" depart="839.4"/>
  <vehicle id="veh327" type="scooter" route="r7" depart="844.1"/>
  <vehicle id="veh328" type="truck" route="r0" depart="846.2"/>
  <vehicle id="veh329" type="car" route="r6" depart="848.6"/>
  <vehicle id="veh330" type="car" route="r2" depart="851.8"/>
  <vehicle id="veh331" type="car" route="r8" depart="854.8"/>
  <vehicle id="veh332" type="car" route="r9" depart="858.0"/>
  <vehicle id="veh333" type="bus" route="r0" depart="862.0"/>
  <vehicle id="veh334" type="car" route="r4" depart="862.5"/>
  <vehicle id="veh335" type="scooter" route="r11" depart="867.1"/>
  <vehicle id="veh336" type="car" route="r11" depart="867.6"/>
  <vehicle id="veh337" type="bus" route="r4" depart="868.6"/>
  <vehicle id="veh338" type="bus" route="r10" depart="871.3"/>
  <vehicle id="veh339" type="car" route="r2" depart="871.8"/>
  <vehicle id="veh340" type="truck" route="r2" depart="873.9"/>
  <vehicle id="veh341" type="car" route="r0" depart="874.5"/>
  <vehicle id="veh342" type="car" route="r2" depart="874.7"/>
  <vehicle id="veh343" type="car" route="r3" depart="878.8"/>
  <vehicle id="veh344" type="scooter" route="r7" depart="880.6"/>
  <vehicle id="veh345" type="car" route="r4" depart="883.3"/>
  <vehicle id="veh346" type="car" route="r8" depart="883.4"/>
  <vehicle id="veh347" type="car" route="r5" depart="885.0"/>
  <vehicle id="veh348" type="bus" route="r10" depart="885.1"/>
  <vehicle id="veh349" type="truck" route="r3" depart="889.2"/>
  <vehicle id="veh350" type="bus" route="r3" depart="893.0"/>
  <vehicle id="veh351" type="scooter" route="r11" depart="895.2"/>
  <vehicle id="veh352" type="car" route="r1" depart="895.6"/>
  <vehicle id="veh353" type="car" route="r7" depart="899.5"/>
  <vehicle id="veh354" type="bus" route="r9" depart="904.2"/>
  <vehicle id="veh355" type="scooter" route="r4" depart="906.8"/>
  <vehicle id="veh356" type="scooter" route="r0" depart="911.1"/>
  <vehicle id="veh357" type="car" route="r6" depart="914.0"/>
  <vehicle id="veh358" type="car" route="r5" depart="915.1"/>
  <vehicle id="veh359" type="car" route="r10" depart="916.1"/>
  <vehicle id="veh360" type="car" route="r9" depart="919.3"/>
  <vehicle id="veh361" type="car" route="r0" depart="923.3"/>
  <vehicle id="veh362" type="scooter" route="r0" depart="926.9"/>
  <vehicle id="veh363" type="scooter" route="r7" depart="927.4"/>
  <vehicle id="veh364" type="car" route="r9" depart="932.1"/>
  <vehicle id="veh365" type="bus" route="r1" depart="934.4"/>
  <vehicle id="veh366" type="car" route="r9" depart="934.7"/>
  <vehicle id="veh367" type="car" route="r6" depart="936.2"/>
  <vehicle id="veh368" type="bus" route="r4" depart="936.2"/>
  <vehicle id="veh369" type="car" route="r7" depart="936.8"/>
  <vehicle id="veh370" type="car" route="r6" depart="941.1"/>
  <vehicle id="veh371" type="truck" route="r3" depart="941.6"/>
  <vehicle id="veh372" type="scooter" route="r2" depart="943.1"/>
  <vehicle id="veh373" type="car" route="r0" depart="945.7"/>
  <vehicle id="veh374" type="car" route="r9" depart="948.8"/>
  <vehicle id="veh375" type="bus" route="r9" depart="953.3"/>
  <vehicle id="veh376" type="bus" route="r8" depart="956.2"/>
  <vehicle id="veh377" type="car" route="r4" depart="957.8"/>
  <vehicle id="veh378" type="truck" route="r0" depart="961.9"/>
  <vehicle id="veh379" type="bus" route="r1" depart="963.9"/>
  <vehicle id="veh380" type="car" route="r10" depart="967.6"/>
  <vehicle id="veh381" type="bus" route="r7" depart="969.6"/>
  <vehicle id="veh382" type="bus" route="r5" depart="971.4"/>
  <vehicle id="veh383" type="car" route="r6" depart="973.0"/>
  <vehicle id="veh384" type="bus" route="r3" depart="976.8"/>
  <vehicle id="veh385" type="car" route="r8" depart="979.2"/>
  <vehicle id="veh386" type="truck" route="r2" depart="980.0"/>
  <vehicle id="veh387" type="car" route="r10" depart="983.9"/>
  <vehicle id="veh388" type="car" route="r0" depart="987.8"/>
  <vehicle id="veh389" type="car" route="r2" depart="987.9"/>
  <vehicle id="veh390" type="scooter" route="r0" depart="990.4"/>
  <vehicle id="veh391" type="truck" route="r2" depart="991.0"/>
  <vehicle id="veh392" type="car" route="r10" depart="991.3"/>
  <vehicle id="veh393" type="scooter" route="r0" depart="991.9"/>
  <vehicle id="veh394" type="bus" route="r10" depart="993.0"/>
  <vehicle id="veh395" type="bus" route="r11" depart="996.6"/>
  <vehicle id="veh396" type="scooter" route="r5" depart="999.3"/>
  <vehicle id="veh397" type="scooter" route="r3" depart="1003.3"/>
  <vehicle id="veh398" type="car" route="r9" depart="1005.5"/>
  <vehicle id="veh399" type="car" route="r0" depart="1010.1"/>
  <vehicle id="veh400" type="truck" route="r6" depart="1011.9"/>
  <vehicle id="veh401" type="scooter" route="r9" depart="1015.7"/>
  <vehicle id="veh402" type="bus" route="r5" depart="1019.6"/>
  <vehicle id="veh403" type="car" route="r3" depart="1020.5"/>
  <vehicle id="veh404" type="car" route="r2" depart="1023.7"/>
  <vehicle id="veh405" type="scooter" route="r9" depart="1024.6"/>
  <vehicle id="veh406" type="scooter" route="r0" depart="1026.0"/>
  <vehicle id="veh407" type="bus" route="r2" depart="1026.7"/>
  <vehicle id="veh408" type="car" route="r2" depart="1028.0"/>
  <vehicle id="veh409" type="truck" route="r9" depart="1032.8"/>
  <vehicle id="veh410" type="scooter" route="r2" depart="1032.9"/>
  <vehicle id="veh411" type="scooter" route="r0" depart="1033.3"/>
  <vehicle id="veh412" type="scooter" route="r11" depart="1036.0"/>
  <vehicle id="veh413" type="car" route="r2" depart="1040.8"/>
  <vehicle id="veh414" type="car" route="r8" depart="1040.9"/>
  <vehicle id="veh415" type="car" route="r10" depart="1042.1"/>
  <vehicle id="veh416" type="car" route="r1" depart="1045.2"/>
  <vehicle id="veh417" type="truck" route="r6" depart="1049.9"/>
  <vehicle id="veh418" type="scooter" route="r9" depart="1051.1"/>
  <vehicle id="veh419" type="car" route="r11" depart="1052.1"/>
  <vehicle id="veh420" type="car" route="r8" depart="1056.8"/>
  <vehicle id="veh421" type="scooter" route="r9" depart="1060.6"/>
  <vehicle id="veh422" type="car" route="r9" depart="1062.5"/>
  <vehicle id="veh423" type="scooter" route="r1" depart="1063.7"/>
  <vehicle id="veh424" type="car" route="r2" depart="1064.6"/>
  <vehicle id="veh425" type="car" route="r4" depart="1066.6"/>
  <vehicle id="veh426" type="car" route="r5" depart="1068.4"/>
  <vehicle id="veh427" type="car" route="r5" depart="1069.8"/>
  <vehicle id="veh428" type="car" route="r4" depart="1070.8"/>
  <vehicle id="veh429" type="car" route="r11" depart="1075.5"/>
  <vehicle id="veh430" type="scooter" route="r11" depart="1078.7"/>
  <vehicle id="veh431" type="bus" route="r6" depart="1080.1"/>
  <vehicle id="veh432" type="car" route="r11" depart="1082.4"/>
  <vehicle id="veh433" type="scooter" route="r8" depart="1087.3"/>
  <vehicle id="veh434" type="bus" route="r6" depart="1089.3"/>
  <vehicle id="veh435" type="bus" route="r9" depart="1091.3"/>
  <vehicle id="veh436" type="car" route="r7" depart="1094.7"/>
  <vehicle id="veh437" type="car" route="r9" depart="1098.5"/>
  <vehicle id="veh438" type="scooter" route="r8" depart="1099.2"/>
  <vehicle id="veh439" type="scooter" route="r9" depart="1101.2"/>
  <vehicle id="veh440" type="car" route="r10" depart="1102.0"/>
  <vehicle id="veh441" type="car" route="r6" depart="1106.9"/>
  <vehicle id="veh442" type="car" route="r1" depart="1107.3"/>
  <vehicle id="veh443" type="scooter" route="r4" depart="1108.1"/>
  <vehicle id="veh444" type="bus" route="r0" depart="1108.8"/>
  <vehicle id="veh445" type="car" route="r1" depart="1112.3"/>
  <vehicle id="veh446" type="car" route="r0" depart="1112.8"/>
  <vehicle id="veh447" type="bus" route="r9" depart="1114.2"/>
  <vehicle id="veh448" type="bus" route="r7" depart="1119.1"/>
  <vehicle id="veh449" type="car" route="r9" depart="1119.4"/>
  <vehicle id="veh450" type="car" route="r8" depart="1123.2"/>
  <vehicle id="veh451" type="truck" route="r1" depart="1123.8"/>
  <vehicle id="veh452" type="scooter" route="r6" depart="1127.1"/>
  <vehicle id="veh453" type="car" route="r3" depart="1129.3"/>
  <vehicle id="veh454" type="car" route="r8" depart="1134.0"/>
  <vehicle id="veh455" type="scooter" route="r1" depart="1134.2"/>
  <vehicle id="veh456" type="car" route="r2" depart="1137.4"/>
  <vehicle id="veh457" type="truck" route="r9" depart="1142.0"/>
  <vehicle id="veh458" type="car" route="r9" depart="1143.4"/>
  <vehicle id="veh459" type="bus" route="r1" depart="1146.9"/>
  <vehicle id="veh460" type="bus" route="r1" depart="1149.4"/>
  <vehicle id="veh461" type="car" route="r10" depart="1153.8"/>
  <vehicle id="veh462" type="bus" route="r10" depart="1157.0"/>
  <vehicle id="veh463" type="truck" route="r7" depart="1158.7"/>