<routes>
  <vType id="car" accel="1.0" decel="4.5" maxSpeed="25" length="5"/>
  <vType id="truck" accel="0.5" decel="3.0" maxSpeed="18" length="12"/>
  <vType id="bus" accel="0.8" decel="3.5" maxSpeed="20" length="10"/>
  <vType id="scooter" accel="1.5" decel="4.0" maxSpeed="30" length="2"/>
  <route id="r0" edges="-north east"/>
  <route id="r1" edges="-north south"/>
  <route id="r2" edges="-north west"/>
  <route id="r3" edges="-east north"/>
  <route id="r4" edges="-east south"/>
  <route id="r5" edges="-east west"/>
  <route id="r6" edges="-south north"/>
  <route id="r7" edges="-south east"/>
  <route id="r8" edges="-south west"/>
  <route id="r9" edges="-west north"/>
  <route id="r10" edges="-west east"/>
  <route id="r11" edges="-west south"/>
  <vehicle id="veh0" type="scooter" route="r8" depart="0.0"/>
  <vehicle id="veh1" type="scooter" route="r6" depart="3.0"/>
  <vehicle id="veh2" type="truck" route="r11" depart="5.1"/>
  <vehicle id="veh3" type="car" route="r11" depart="9.4"/>
  <vehicle id="veh4" type="truck" route="r11" depart="12.7"/>
  <vehicle id="veh5" type="scooter" route="r9" depart="15.3"/>
  <vehicle id="veh6" type="car" route="r11" depart="18.6"/>
  <vehicle id="veh7" type="truck" route="r7" depart="23.3"/>
  <vehicle id="veh8" type="car" route="r9" depart="24.6"/>
  <vehicle id="veh9" type="scooter" route="r10" depart="29.5"/>
  <vehicle id="veh10" type="car" route="r7" depart="31.1"/>
  <vehicle id="veh11" type="car" route="r1" depart="32.4"/>
  <vehicle id="veh12" type="car" route="r6" depart="35.7"/>
  <vehicle id="veh13" type="bus" route="r5" depart="40.0"/>
  <vehicle id="veh14" type="car" route="r8" depart="42.4"/>
  <vehicle id="veh15" type="car" route="r10" depart="46.2"/>
  <vehicle id="veh16" type="car" route="r6" depart="48.5"/>
  <vehicle id="veh17" type="truck" route="r11" depart="52.4"/>
  <vehicle id="veh18" type="car" route="r7" depart="54.7"/>
  <vehicle id="veh19" type="car" route="r6" depart="57.6"/>
  <vehicle id="veh20" type="car" route="r2" depart="61.6"/>
  <vehicle id="veh21" type="scooter" route="r9" depart="65.0"/>
  <vehicle id="veh22" type="car" route="r1" depart="66.7"/>
  <vehicle id="veh23" type="scooter" route="r2" depart="68.5"/>
  <vehicle id="veh24" type="bus" route="r10" depart="69.1"/>
  <vehicle id="veh25" type="car" route="r4" depart="73.4"/>
  <vehicle id="veh26" type="bus" route="r1" depart="77.2"/>
  <vehicle id="veh27" type="truck" route="r6" depart="77.3"/>
  <vehicle id="veh28" type="car" route="r10" depart="80.4"/>
  <vehicle id="veh29" type="bus" route="r3" depart="84.0"/>
  <vehicle id="veh30" type="car" route="r0" depart="88.5"/>
  <vehicle id="veh31" type="car" route="r0" depart="90.4"/>
  <vehicle id="veh32" type="car" route="r2" depart="93.4"/>
  <vehicle id="veh33" type="bus" route="r7" depart="93.6"/>
  <vehicle id="veh34" type="scooter" route="r11" depart="93.9"/>
  <vehicle id="veh35" type="scooter" route="r4" depart="98.2"/>
  <vehicle id="veh36" type="car" route="r7" depart="98.5"/>
  <vehicle id="veh37" type="car" route="r4" depart="99.7"/>
  <vehicle id="veh38" type="car" route="r0" depart="104.3"/>
  <vehicle id="veh39" type="bus" route="r9" depart="104.6"/>
  <vehicle id="veh40" type="scooter" route="r8" depart="106.1"/>
  <vehicle id="veh41" type="bus" route="r5" depart="109.5"/>
  <vehicle id="veh42" type="car" route="r0" depart="112.6"/>
  <vehicle id="veh43" type="car" route="r10" depart="116.5"/>
  <vehicle id="veh44" type="bus" route="r2" depart="118.5"/>
  <vehicle id="veh45" type="scooter" route="r4" depart="122.9"/>
  <vehicle id="veh46" type="car" route="r5" depart="125.3"/>
  <vehicle id="veh47" type="car" route="r0" depart="129.3"/>
  <vehicle id="veh48" type="car" route="r2" depart="130.0"/>
  <vehicle id="veh49" type="car" route="r5" depart="134.7"/>
  <vehicle id="veh50" type="bus" route="r3" depart="136.1"/>
  <vehicle id="veh51" type="bus" route="r2" depart="138.9"/>
  <vehicle id="veh52" type="car" route="r6" depart="141.0"/>
  <vehicle id="veh53" type="scooter" route="r2" depart="141.8"/>
  <vehicle id="veh54" type="scooter" route="r4" depart="142.0"/>
  <vehicle id="veh55" type="truck" route="r8" depart="144.0"/>
  <vehicle id="veh56" type="truck" route="r0" depart="147.3"/>
  <vehicle id="veh57" type="bus" route="r7" depart="147.5"/>
  <vehicle id="veh58" type="scooter" route="r11" depart="149.1"/>
  <vehicle id="veh59" type="car" route="r8" depart="150.3"/>
  <vehicle id="veh60" type="car" route="r1" depart="153.3"/>
  <vehicle id="veh61" type="car" route="r9" depart="157.4"/>
  <vehicle id="veh62" type="scooter" route="r3" depart="161.1"/>
  <vehicle id="veh63" type="truck" route="r9" depart="163.0"/>
  <vehicle id="veh64" type="car" route="r0" depart="167.5"/>
  <vehicle id="veh65" type="scooter" route="r2" depart="169.8"/>
  <vehicle id="veh66" type="car" route="r7" depart="170.1"/>
  <vehicle id="veh67" type="bus" route="r1" depart="172.0"/>
  <vehicle id="veh68" type="bus" route="r6" depart="176.3"/>
  <vehicle id="veh69" type="bus" route="r7" depart="176.4"/>
  <vehicle id="veh70" type="car" route="r1" depart="177.8"/>
  <vehicle id="veh71" type="bus" route="r5" depart="178.0"/>
  <vehicle id="veh72" type="scooter" route="r5" depart="180.2"/>
  <vehicle id="veh73" type="car" route="r0" depart="181.4"/>
  <vehicle id="veh74" type="bus" route="r3" depart="184.4"/>
  <vehicle id="veh75" type="car" route="r6" depart="184.5"/>
  <vehicle id="veh76" type="scooter" route="r9" depart="186.4"/>
  <vehicle id="veh77" type="car" route="r9" depart="191.4"/>
  <vehicle id="veh78" type="car" route="r0" depart="192.4"/>
  <vehicle id="veh79" type="truck" route="r8" depart="195.8"/>
  <vehicle id="veh80" type="car" route="r4" depart="197.3"/>
  <vehicle id="veh81" type="car" route="r9" depart="201.5"/>
  <vehicle id="veh82" type="bus" route="r2" depart="205.1"/>
  <vehicle id="veh83" type="car" route="r8" depart="206.0"/>
  <vehicle id="veh84" type="car" route="r1" depart="207.9"/>
  <vehicle id="veh85" type="truck" route="r6" depart="208.5"/>
  <vehicle id="veh86" type="bus" route="r1" depart="211.8"/>
  <vehicle id="veh87" type="car" route="r5" depart="213.7"/>
  <vehicle id="veh88" type="car" route="r4" depart="216.3"/>
  <vehicle id="veh89" type="bus" route="r9" depart="219.1"/>
  <vehicle id="veh90" type="car" route="r8" depart="222.7"/>
  <vehicle id="veh91" type="bus" route="r8" depart="225.9"/>
  <vehicle id="veh92" type="scooter" route="r4" depart="228.5"/>
  <vehicle id="veh93" type="car" route="r3" depart="233.2"/>
  <vehicle id="veh94" type="car" route="r4" depart="237.3"/>
  <vehicle id="veh95" type="bus" route="r3" depart="241.2"/>
  <vehicle id="veh96" type="car" route="r9" depart="242.3"/>
  <vehicle id="veh97" type="truck" route="r8" depart="246.9"/>
  <vehicle id="veh98" type="truck" route="r3" depart="249.5"/>
  <vehicle id="veh99" type="truck" route="r7" depart="251.8"/>
  <vehicle id="veh100" type="car" route="r4" depart="253.7"/>
  <vehicle id="veh101" type="car" route="r6" depart="256.9"/>
  <vehicle id="veh102" type="truck" route="r11" depart="261.7"/>
  <vehicle id="veh103" type="bus" route="r7" depart="262.0"/>
  <vehicle id="veh104" type="bus" route="r5" depart="266.1"/>
  <vehicle id="veh105" type="bus" route="r5" depart="270.6"/>
  <vehicle id="veh106" type="scooter" route="r0" depart="273.8"/>
  <vehicle id="veh107" type="bus" route="r4" depart="274.1"/>
  <vehicle id="veh108" type="truck" route="r5" depart="277.8"/>
  <vehicle id="veh109" type="truck" route="r8" depart="281.8"/>
  <vehicle id="veh110" type="car" route="r7" depart="284.6"/>
  <vehicle id="veh111" type="car" route="r3" depart="285.0"/>
  <vehicle id="veh112" type="scooter" route="r1" depart="288.8"/>
  <vehicle id="veh113" type="bus" route="r9" depart="291.5"/>
  <vehicle id="veh114" type="car" route="r7" depart="296.4"/>
  <vehicle id="veh115" type="scooter" route="r8" depart="299.9"/>
  <vehicle id="veh116" type="scooter" route="r8" depart="303.7"/>
  <vehicle id="veh117" type="car" route="r1" depart="307.1"/>
  <vehicle id="veh118" type="bus" route="r4" depart="309.8"/>
  <vehicle id="veh119" type="car" route="r7" depart="312.9"/>
  <vehicle id="veh120" type="car" route="r8" depart="314.7"/>
  <vehicle id="veh121" type="car" route="r1" depart="318.5"/>
  <vehicle id="veh122" type="car" route="r6" depart="319.4"/>
  <vehicle id="veh123" type="bus" route="r6" depart="322.0"/>
  <vehicle id="veh124" type="scooter" route="r3" depart="323.7"/>
  <vehicle id="veh125" type="car" route="r1" depart="324.3"/>
  <vehicle id="veh126" type="car" route="r10" depart="329.0"/>
  <vehicle id="veh127" type="car" route="r10" depart="331.5"/>
  <vehicle id="veh128" type="car" route="r0" depart="334.8"/>
  <vehicle id="veh129" type="car" route="r1" depart="337.6"/>
  <vehicle id="veh130" type="car" route="r1" depart="338.7"/>
  <vehicle id="veh131" type="scooter" route="r11" depart="338.9"/>
  <vehicle id="veh132" type="car" route="r4" depart="341.4"/>
  <vehicle id="veh133" type="scooter" route="r9" depart="346.4"/>
  <vehicle id="veh134" type="truck" route="r6" depart="346.6"/>
  <vehicle id="veh135" type="scooter" route="r0" depart="351.0"/>
  <vehicle id="veh136" type="car" route="r3" depart="351.6"/>
  <vehicle id="veh137" type="scooter" route="r3" depart="356.0"/>
  <vehicle id="veh138" type="car" route="r0" depart="357.5"/>
  <vehicle id="veh139" type="bus" route="r1" depart="361.1"/>
  <vehicle id="veh140" type="scooter" route="r10" depart="365.3"/>
  <vehicle id="veh141" type="car" route="r6" depart="368.4"/>
  <vehicle id="veh142" type="car" route="r5" depart="369.2"/>
  <vehicle id="veh143" type="car" route="r11" depart="373.7"/>
  <vehicle id="veh144" type="car" route="r11" depart="376.8"/>
  <vehicle id="veh145" type="car" route="r5" depart="379.7"/>
  <vehicle id="veh146" type="scooter" route="r7" depart="381.3"/>
  <vehicle id="veh147" type="truck" route="r10" depart="383.8"/>
  <vehicle id="veh148" type="scooter" route="r5" depart="384.2"/>
  <vehicle id="veh149" type="scooter" route="r5" depart="384.5"/>
  <vehicle id="veh150" type="car" route="r10" depart="387.6"/>
  <vehicle id="veh151" type="scooter" route="r2" depart="389.0"/>
  <vehicle id="veh152" type="bus" route="r6" depart="391.3"/>
  <vehicle id="veh153" type="bus" route="r3" depart="396.2"/>
  <vehicle id="veh154" type="scooter" route="r7" depart="401.0"/>
  <vehicle id="veh155" type="car" route="r5" depart="401.2"/>
  <vehicle id="veh156" type="car" route="r4" depart="406.0"/>
  <vehicle id="veh157" type="scooter" route="r4" depart="408.5"/>
  <vehicle id="veh158" type="bus" route="r0" depart="409.5"/>
  <vehicle id="veh159" type="car" route="r8" depart="414.0"/>
  <vehicle id="veh160" type="car" route="r1" depart="417.6"/>
  <vehicle id="veh161" type="truck" route="r10" depart="418.4"/>
  <vehicle id="veh162" type="car" route="r3" depart="418.5"/>
  <vehicle id="veh163" type="car" route="r8" depart="422.3"/>
  <vehicle id="veh164" type="bus" route="r0" depart="426.8"/>
  <vehicle id="veh165" type="car" route="r7" depart="428.5"/>
  <vehicle id="veh166" type="scooter" route="r7" depart="433.0"/>
  <vehicle id="veh167" type="car" route="r11" depart="437.8"/>
  <vehicle id="veh168" type="car" route="r8" depart="438.4"/>
  <vehicle id="veh169" type="bus" route="r3" depart="441.0"/>
  <vehicle id="veh170" type="car" route="r4" depart="444.8"/>
  <vehicle id="veh171" type="truck" route="r4" depart="449.2"/>
  <vehicle id="veh172" type="scooter" route="r1" depart="452.1"/>
  <vehicle id="veh173" type="car" route="r1" depart="456.1"/>
  <vehicle id="veh174" type="car" route="r8" depart="459.4"/>
  <vehicle id="veh175" type="car" route="r0" depart="463.0"/>
  <vehicle id="veh176" type="truck" route="r10" depart="467.5"/>
  <vehicle id="veh177" type="car" route="r4" depart="471.3"/>
  <vehicle id="veh178" type="bus" route="r6" depart="475.2"/>
  <vehicle id="veh179" type="car" route="r0" depart="477.8"/>
  <vehicle id="veh180" type="car" route="r10" depart="480.2"/>
  <vehicle id="veh181" type="scooter" route="r8" depart="484.7"/>
  <vehicle id="veh182" type="truck" route="r1" depart="486.0"/>
  <vehicle id="veh183" type="scooter" route="r6" depart="490.0"/>
  <vehicle id="veh184" type="car" route="r11" depart="493.3"/>
  <vehicle id="veh185" type="car" route="r10" depart="498.0"/>
  <vehicle id="veh186" type="scooter" route="r10" depart="502.2"/>
  <vehicle id="veh187" type="car" route="r0" depart="504.2"/>
  <vehicle id="veh188" type="car" route="r0" depart="507.7"/>
  <vehicle id="veh189" type="car" route="r5" depart="508.6"/>
  <vehicle id="veh190" type="car" route="r7" depart="509.2"/>
  <vehicle id="veh191" type="car" route="r11" depart="512.3"/>
  <vehicle id="veh192" type="car" route="r5" depart="515.5"/>
  <vehicle id="veh193" type="car" route="r9" depart="518.1"/>
  <vehicle id="veh194" type="scooter" route="r6" depart="521.6"/>
  <vehicle id="veh195" type="car" route="r2" depart="523.3"/>
  <vehicle id="veh196" type="truck" route="r0" depart="524.0"/>
  <vehicle id="veh197" type="car" route="r9" depart="528.9"/>
  <vehicle id="veh198" type="scooter" route="r8" depart="532.7"/>
  <vehicle id="veh199" type="scooter" route="r5" depart="535.9"/>
  <vehicle id="veh200" type="scooter" route="r7" depart="536.9"/>
  <vehicle id="veh201" type="car" route="r8" depart="540.0"/>
  <vehicle id="veh202" type="car" route="r5" depart="541.7"/>
  <vehicle id="veh203" type="bus" route="r10" depart="543.6"/>
  <vehicle id="veh204" type="car" route="r6" depart="546.0"/>
  <vehicle id="veh205" type="car" route="r8" depart="546.3"/>
  <vehicle id="veh206" type="car" route="r6" depart="548.7"/>
  <vehicle id="veh207" type="car" route="r8" depart="549.1"/>
  <vehicle id="veh208" type="truck" route="r10" depart="552.8"/>
  <vehicle id="veh209" type="bus" route="r3" depart="555.0"/>
  <vehicle id="veh210" type="car" route="r11" depart="559.3"/>
  <vehicle id="veh211" type="car" route="r6" depart="563.3"/>
  <vehicle id="veh212" type="car" route="r7" depart="567.0"/>
  <vehicle id="veh213" type="car" route="r5" depart="568.0"/>
  <vehicle id="veh214" type="scooter" route="r7" depart="572.5"/>
  <vehicle id="veh215" type="car" route="r9" depart="575.8"/>
  <vehicle id="veh216" type="bus" route="r2" depart="576.1"/>
  <vehicle id="veh217" type="bus" route="r5" depart="577.5"/>
  <vehicle id="veh218" type="bus" route="r4" depart="580.2"/>
  <vehicle id="veh219" type="truck" route="r2" depart="581.1"/>
  <vehicle id="veh220" type="scooter" route="r2" depart="581.2"/>
  <vehicle id="veh221" type="car" route="r0" depart="585.0"/>
  <vehicle id="veh222" type="car" route="r10" depart="588.4"/>
  <vehicle id="veh223" type="car" route="r11" depart="591.5"/>
  <vehicle id="veh224" type="car" route="r2" depart="595.9"/>
  <vehicle id="veh225" type="car" route="r4" depart="600.2"/>
  <vehicle id="veh226" type="car" route="r9" depart="602.5"/>
  <vehicle id="veh227" type="car" route="r9" depart="603.6"/>
  <vehicle id="veh228" type="car" route="r10" depart="606.7"/>
  <vehicle id="veh229" type="car" route="r4" depart="608.4"/>
  <vehicle id="veh230" type="bus" route="r10" depart="608.7"/>
  <vehicle id="veh231" type="car" route="r3" depart="610.3"/>
  <vehicle id="veh232" type="car" route="r6" depart="615.2"/>
  <vehicle id="veh233" type="bus" route="r1" depart="615.5"/>
  <vehicle id="veh234" type="car" route="r5" depart="619.0"/>
  <vehicle id="veh235" type="scooter" route="r3" depart="620.0"/>
  <vehicle id="veh236" type="car" route="r8" depart="623.7"/>
  <vehicle id="veh237" type="car" route="r5" depart="625.6"/>
  <vehicle id="veh238" type="bus" route="r4" depart="627.6"/>
  <vehicle id="veh239" type="bus" route="r7" depart="632.6"/>
  <vehicle id="veh240" type="car" route="r1" depart="636.2"/>
  <vehicle id="veh241" type="car" route="r1" depart="639.4"/>
  <vehicle id="veh242" type="scooter" route="r1" depart="642.0"/>
  <vehicle id="veh243" type="car" route="r7" depart="643.6"/>
  <vehicle id="veh244" type="car" route="r2" depart="647.7"/>
  <vehicle id="veh245" type="truck" route="r4" depart="652.4"/>
  <vehicle id="veh246" type="car" route="r11" depart="654.3"/>
  <vehicle id="veh247" type="car" route="r9" depart="654.5"/>
  <vehicle id="veh248" type="car" route="r11" depart="656.3"/>
  <vehicle id="veh249" type="scooter" route="r6" depart="658.2"/>
  <vehicle id="veh250" type="car" route="r11" depart="659.1"/>
  <vehicle id="veh251" type="car" route="r4" depart="663.4"/>
  <vehicle id="veh252" type="car" route="r9" depart="666.9"/>
  <vehicle id="veh253" type="car" route="r7" depart="668.3"/>
  <vehicle id="veh254" type="car" route="r9" depart="669.0"/>
  <vehicle id="veh255" type="car" route="r4" depart="671.9"/>
  <vehicle id="veh256" type="car" route="r10" depart="674.3"/>
  <vehicle id="veh257" type="car" route="r0" depart="674.6"/>
  <vehicle id="veh258" type="bus" route="r3" depart="674.9"/>
  <vehicle id="veh259" type="scooter" route="r0" depart="676.4"/>
  <vehicle id="veh260" type="car" route="r9" depart="680.5"/>
  <vehicle id="veh261" type="car" route="r3" depart="684.3"/>
  <vehicle id="veh262" type="car" route="r4" depart="688.5"/>
  <vehicle id="veh263" type="car" route="r7" depart="692.2"/>
  <vehicle id="veh264" type="car" route="r4" depart="694.5"/>
  <vehicle id="veh265" type="bus" route="r3" depart="695.4"/>
  <vehicle id="veh266" type="car" route="r5" depart="699.3"/>
  <vehicle id="veh267" type="bus" route="r1" depart="702.6"/>
  <vehicle id="veh268" type="scooter" route="r5" depart="704.4"/>
  <vehicle id="veh269" type="scooter" route="r9" depart="707.1"/>
  <vehicle id="veh270" type="car" route="r5" depart="710.8"/>
  <vehicle id="veh271" type="scooter" route="r4" depart="713.3"/>
  <vehicle id="veh272" type="bus" route="r5" depart="714.8"/>
  <vehicle id="veh273" type="bus" route="r0" depart="716.6"/>
  <vehicle id="veh274" type="scooter" route="r10" depart="720.5"/>
  <vehicle id="veh275" type="bus" route="r4" depart="724.2"/>
  <vehicle id="veh276" type="bus" route="r11" depart="724.9"/>
  <vehicle id="veh277" type="scooter" route="r10" depart="725.8"/>
  <vehicle id="veh278" type="car" route="r8" depart="730.0"/>
  <vehicle id="veh279" type="bus" route="r5" depart="732.7"/>
  <vehicle id="veh280" type="bus" route="r1" depart="735.2"/>
  <vehicle id="veh281" type="bus" route="r2" depart="735.6"/>
  <vehicle id="veh282" type="car" route="r2" depart="737.6"/>
  <vehicle id="veh283" type="car" route="r8" depart="741.0"/>
  <vehicle id="veh284" type="bus" route="r7" depart="743.6"/>
  <vehicle id="veh285" type="bus" route="r5" depart="746.7"/>
  <vehicle id="veh286" type="scooter" route="r5" depart="747.4"/>
  <vehicle id="veh287" type="car" route="r4" depart="749.2"/>
  <vehicle id="veh288" type="scooter" route="r1" depart="751.6"/>
  <vehicle id="veh289" type="car" route="r7" depart="753.7"/>
  <vehicle id="veh290" type="truck" route="r6" depart="757.6"/>
  <vehicle id="veh291" type="car" route="r0" depart="759.6"/>
  <vehicle id="veh292" type="car" route="r1" depart="760.1"/>
  <vehicle id="veh293" type="bus" route="r11" depart="764.7"/>
  <vehicle id="veh294" type="scooter" route="r4" depart="766.3"/>
  <vehicle id="veh295" type="car" route="r9" depart="769.2"/>
  <vehicle id="veh296" type="bus" route="r1" depart="773.0"/>
  <vehicle id="veh297" type="car" route="r10" depart="773.2"/>
  <vehicle id="veh298" type="car" route="r4" depart="778.1"/>
  <vehicle id="veh299" type="bus" route="r1" depart="782.4"/>
</routes>
