<routes>
  <vType id="car" accel="1.0" decel="4.5" maxSpeed="25" length="5"/>
  <vType id="truck" accel="0.5" decel="3.0" maxSpeed="18" length="12"/>
  <vType id="bus" accel="0.8" decel="3.5" maxSpeed="20" length="10"/>
  <vType id="scooter" accel="1.5" decel="4.0" maxSpeed="30" length="2"/>
  <route id="r0" edges="-north east"/>
  <route id="r1" edges="-north south"/>
  <route id="r2" edges="-north west"/>
  <route id="r3" edges="-east north"/>
  <route id="r4" edges="-east south"/>
  <route id="r5" edges="-east west"/>
  <route id="r6" edges="-south north"/>
  <route id="r7" edges="-south east"/>
  <route id="r8" edges="-south west"/>
  <route id="r9" edges="-west north"/>
  <route id="r10" edges="-west east"/>
  <route id="r11" edges="-west south"/>
  <vehicle id="veh0" type="truck" route="r4" depart="0.0"/>
  <vehicle id="veh1" type="truck" route="r2" depart="1.9"/>
  <vehicle id="veh2" type="truck" route="r11" depart="5.1"/>
  <vehicle id="veh3" type="car" route="r11" depart="7.9"/>
  <vehicle id="veh4" type="car" route="r7" depart="12.6"/>
  <vehicle id="veh5" type="car" route="r0" depart="13.9"/>
  <vehicle id="veh6" type="car" route="r0" depart="16.6"/>
  <vehicle id="veh7" type="bus" route="r10" depart="19.7"/>
  <vehicle id="veh8" type="scooter" route="r4" depart="24.7"/>
  <vehicle id="veh9" type="car" route="r3" depart="26.8"/>
  <vehicle id="veh10" type="car" route="r8" depart="30.3"/>
  <vehicle id="veh11" type="car" route="r10" depart="31.6"/>
  <vehicle id="veh12" type="car" route="r2" depart="35.2"/>
  <vehicle id="veh13" type="bus" route="r9" depart="39.9"/>
  <vehicle id="veh14" type="scooter" route="r2" depart="40.3"/>
  <vehicle id="veh15" type="truck" route="r10" depart="43.0"/>
  <vehicle id="veh16" type="car" route="r11" depart="43.3"/>
  <vehicle id="veh17" type="scooter" route="r6" depart="47.3"/>
  <vehicle id="veh18" type="car" route="r2" depart="52.2"/>
  <vehicle id="veh19" type="bus" route="r9" depart="54.8"/>
  <vehicle id="veh20" type="scooter" route="r11" depart="59.2"/>
  <vehicle id="veh21" type="bus" route="r9" depart="59.4"/>
  <vehicle id="veh22" type="bus" route="r4" depart="62.2"/>
  <vehicle id="veh23" type="car" route="r11" depart="63.6"/>
  <vehicle id="veh24" type="bus" route="r9" depart="64.3"/>
  <vehicle id="veh25" type="car" route="r9" depart="66.9"/>
  <vehicle id="veh26" type="bus" route="r5" depart="68.6"/>
  <vehicle id="veh27" type="car" route="r0" depart="69.6"/>
  <vehicle id="veh28" type="scooter" route="r2" depart="71.5"/>
  <vehicle id="veh29" type="bus" route="r4" depart="75.6"/>
  <vehicle id="veh30" type="car" route="r3" depart="78.3"/>
  <vehicle id="veh31" type="bus" route="r0" depart="81.5"/>
  <vehicle id="veh32" type="car" route="r6" depart="83.6"/>
  <vehicle id="veh33" type="bus" route="r9" depart="88.2"/>
  <vehicle id="veh34" type="car" route="r5" depart="90.0"/>
  <vehicle id="veh35" type="truck" route="r7" depart="94.4"/>
  <vehicle id="veh36" type="bus" route="r9" depart="97.4"/>
  <vehicle id="veh37" type="truck" route="r2" depart="98.8"/>
  <vehicle id="veh38" type="scooter" route="r11" depart="103.5"/>
  <vehicle id="veh39" type="car" route="r10" depart="106.8"/>
  <vehicle id="veh40" type="car" route="r11" depart="110.6"/>
  <vehicle id="veh41" type="car" route="r11" depart="111.0"/>
  <vehicle id="veh42" type="car" route="r6" depart="113.0"/>
  <vehicle id="veh43" type="scooter" route="r0" depart="116.1"/>
  <vehicle id="veh44" type="bus" route="r4" depart="120.6"/>
  <vehicle id="veh45" type="bus" route="r10" depart="121.7"/>
  <vehicle id="veh46" type="scooter" route="r1" depart="124.1"/>
  <vehicle id="veh47" type="car" route="r7" depart="125.4"/>
  <vehicle id="veh48" type="bus" route="r9" depart="128.6"/>
  <vehicle id="veh49" type="bus" route="r7" depart="132.2"/>
  <vehicle id="veh50" type="car" route="r0" depart="134.2"/>
  <vehicle id="veh51" type="bus" route="r0" depart="139.1"/>
  <vehicle id="veh52" type="scooter" route="r2" depart="142.7"/>
  <vehicle id="veh53" type="bus" route="r4" depart="144.0"/>
  <vehicle id="veh54" type="truck" route="r1" depart="144.8"/>
  <vehicle id="veh55" type="car" route="r1" depart="145.5"/>
  <vehicle id="veh56" type="bus" route="r7" depart="149.4"/>
  <vehicle id="veh57" type="car" route="r7" depart="149.6"/>
  <vehicle id="veh58" type="scooter" route="r0" depart="153.5"/>
  <vehicle id="veh59" type="truck" route="r4" depart="158.3"/>
  <vehicle id="veh60" type="car" route="r1" depart="161.4"/>
  <vehicle id="veh61" type="bus" route="r0" depart="163.5"/>
  <vehicle id="veh62" type="car" route="r2" depart="164.5"/>
  <vehicle id="veh63" type="car" route="r8" depart="164.9"/>
  <vehicle id="veh64" type="scooter" route="r7" depart="167.4"/>
  <vehicle id="veh65" type="scooter" route="r2" depart="168.1"/>
  <vehicle id="veh66" type="car" route="r4" depart="170.3"/>
  <vehicle id="veh67" type="bus" route="r6" depart="174.9"/>
  <vehicle id="veh68" type="bus" route="r6" depart="175.5"/>
  <vehicle id="veh69" type="car" route="r1" depart="176.5"/>
  <vehicle id="veh70" type="car" route="r0" depart="178.7"/>
  <vehicle id="veh71" type="car" route="r6" depart="182.9"/>
  <vehicle id="veh72" type="bus" route="r9" depart="187.2"/>
  <vehicle id="veh73" type="car" route="r5" depart="187.6"/>
  <vehicle id="veh74" type="scooter" route="r2" depart="190.6"/>
  <vehicle id="veh75" type="truck" route="r0" depart="194.1"/>
  <vehicle id="veh76" type="car" route="r5" depart="194.4"/>
  <vehicle id="veh77" type="bus" route="r1" depart="197.3"/>
  <vehicle id="veh78" type="car" route="r2" depart="198.5"/>
  <vehicle id="veh79" type="bus" route="r4" depart="200.6"/>
  <vehicle id="veh80" type="bus" route="r10" depart="204.3"/>
  <vehicle id="veh81" type="scooter" route="r9" depart="207.5"/>
  <vehicle id="veh82" type="scooter" route="r0" depart="211.6"/>
  <vehicle id="veh83" type="car" route="r3" depart="213.5"/>
  <vehicle id="veh84" type="scooter" route="r3" depart="217.1"/>
  <vehicle id="veh85" type="car" route="r7" depart="221.5"/>
  <vehicle id="veh86" type="car" route="r4" depart="222.3"/>
  <vehicle id="veh87" type="truck" route="r5" depart="226.3"/>
  <vehicle id="veh88" type="bus" route="r2" depart="230.0"/>
  <vehicle id="veh89" type="car" route="r1" depart="232.4"/>
  <vehicle id="veh90" type="scooter" route="r9" depart="237.0"/>
  <vehicle id="veh91" type="bus" route="r4" depart="238.4"/>
  <vehicle id="veh92" type="car" route="r7" depart="243.2"/>
  <vehicle id="veh93" type="car" route="r4" depart="244.8"/>
  <vehicle id="veh94" type="truck" route="r11" depart="245.8"/>
  <vehicle id="veh95" type="car" route="r6" depart="247.4"/>
  <vehicle id="veh96" type="truck" route="r3" depart="248.9"/>
  <vehicle id="veh97" type="car" route="r7" depart="253.5"/>
  <vehicle id="veh98" type="car" route="r10" depart="258.5"/>
  <vehicle id="veh99" type="bus" route="r10" depart="262.1"/>
</routes>
