<routes>
  <vType id="car" accel="1.0" decel="4.5" maxSpeed="25" length="5"/>
  <vType id="truck" accel="0.5" decel="3.0" maxSpeed="18" length="12"/>
  <vType id="bus" accel="0.8" decel="3.5" maxSpeed="20" length="10"/>
  <vType id="scooter" accel="1.5" decel="4.0" maxSpeed="30" length="2"/>
  <route id="r0" edges="-north east"/>
  <route id="r1" edges="-north south"/>
  <route id="r2" edges="-north west"/>
  <route id="r3" edges="-east north"/>
  <route id="r4" edges="-east south"/>
  <route id="r5" edges="-east west"/>
  <route id="r6" edges="-south north"/>
  <route id="r7" edges="-south east"/>
  <route id="r8" edges="-south west"/>
  <route id="r9" edges="-west north"/>
  <route id="r10" edges="-west east"/>
  <route id="r11" edges="-west south"/>
  <vehicle id="veh0" type="bus" route="r8" depart="0.0"/>
  <vehicle id="veh1" type="bus" route="r1" depart="1.2"/>
  <vehicle id="veh2" type="scooter" route="r4" depart="5.8"/>
  <vehicle id="veh3" type="truck" route="r7" depart="7.3"/>
  <vehicle id="veh4" type="truck" route="r1" depart="10.6"/>
  <vehicle id="veh5" type="scooter" route="r2" depart="11.7"/>
  <vehicle id="veh6" type="bus" route="r0" depart="16.4"/>
  <vehicle id="veh7" type="bus" route="r6" depart="20.4"/>
  <vehicle id="veh8" type="car" route="r1" depart="22.6"/>
  <vehicle id="veh9" type="bus" route="r8" depart="23.9"/>
  <vehicle id="veh10" type="scooter" route="r7" depart="24.8"/>
  <vehicle id="veh11" type="car" route="r11" depart="27.1"/>
  <vehicle id="veh12" type="scooter" route="r7" depart="31.1"/>
  <vehicle id="veh13" type="bus" route="r8" depart="33.0"/>
  <vehicle id="veh14" type="scooter" route="r6" depart="37.1"/>
  <vehicle id="veh15" type="bus" route="r3" depart="42.0"/>
  <vehicle id="veh16" type="car" route="r4" depart="43.9"/>
  <vehicle id="veh17" type="car" route="r8" depart="48.8"/>
  <vehicle id="veh18" type="truck" route="r9" depart="53.2"/>
  <vehicle id="veh19" type="bus" route="r3" depart="54.9"/>
  <vehicle id="veh20" type="car" route="r9" depart="57.4"/>
  <vehicle id="veh21" type="scooter" route="r10" depart="61.6"/>
  <vehicle id="veh22" type="bus" route="r7" depart="64.4"/>
  <vehicle id="veh23" type="bus" route="r5" depart="68.5"/>
  <vehicle id="veh24" type="truck" route="r0" depart="73.4"/>
  <vehicle id="veh25" type="bus" route="r7" depart="77.0"/>
  <vehicle id="veh26" type="car" route="r0" depart="77.5"/>
  <vehicle id="veh27" type="car" route="r1" depart="78.7"/>
  <vehicle id="veh28" type="bus" route="r10" depart="81.1"/>
  <vehicle id="veh29" type="scooter" route="r6" depart="83.6"/>
  <vehicle id="veh30" type="car" route="r7" depart="87.1"/>
  <vehicle id="veh31" type="truck" route="r1" depart="88.7"/>
  <vehicle id="veh32" type="car" route="r9" depart="93.0"/>
  <vehicle id="veh33" type="scooter" route="r0" depart="95.7"/>
  <vehicle id="veh34" type="car" route="r8" depart="96.5"/>
  <vehicle id="veh35" type="scooter" route="r2" depart="98.8"/>
  <vehicle id="veh36" type="car" route="r8" depart="102.1"/>
  <vehicle id="veh37" type="scooter" route="r5" depart="106.8"/>
  <vehicle id="veh38" type="truck" route="r1" depart="107.9"/>
  <vehicle id="veh39" type="car" route="r10" depart="111.8"/>
  <vehicle id="veh40" type="car" route="r3" depart="114.5"/>
  <vehicle id="veh41" type="truck" route="r9" depart="119.3"/>
  <vehicle id="veh42" type="car" route="r1" depart="120.7"/>
  <vehicle id="veh43" type="car" route="r4" depart="125.2"/>
  <vehicle id="veh44" type="car" route="r2" depart="125.8"/>
  <vehicle id="veh45" type="car" route="r11" depart="126.9"/>
  <vehicle id="veh46" type="car" route="r0" depart="129.4"/>
  <vehicle id="veh47" type="car" route="r7" depart="132.3"/>
  <vehicle id="veh48" type="scooter" route="r6" depart="133.4"/>
  <vehicle id="veh49" type="truck" route="r3" depart="136.5"/>
  <vehicle id="veh50" type="car" route="r11" depart="136.9"/>
  <vehicle id="veh51" type="scooter" route="r5" depart="138.8"/>
  <vehicle id="veh52" type="car" route="r1" depart="143.0"/>
  <vehicle id="veh53" type="truck" route="r7" depart="147.9"/>
  <vehicle id="veh54" type="car" route="r1" depart="151.5"/>
  <vehicle id="veh55" type="scooter" route="r3" depart="152.0"/>
  <vehicle id="veh56" type="bus" route="r11" depart="154.2"/>
  <vehicle id="veh57" type="car" route="r0" depart="154.9"/>
  <vehicle id="veh58" type="car" route="r4" depart="156.7"/>
  <vehicle id="veh59" type="car" route="r0" depart="159.1"/>
  <vehicle id="veh60" type="bus" route="r4" depart="159.3"/>
  <vehicle id="veh61" type="scooter" route="r2" depart="163.3"/>
  <vehicle id="veh62" type="scooter" route="r1" depart="163.4"/>
  <vehicle id="veh63" type="truck" route="r5" depart="164.3"/>
  <vehicle id="veh64" type="bus" route="r3" depart="164.5"/>
  <vehicle id="veh65" type="car" route="r9" depart="167.1"/>
  <vehicle id="veh66" type="car" route="r9" depart="167.1"/>
  <vehicle id="veh67" type="car" route="r10" depart="169.8"/>
  <vehicle id="veh68" type="car" route="r2" depart="172.7"/>
  <vehicle id="veh69" type="car" route="r6" depart="176.3"/>
  <vehicle id="veh70" type="scooter" route="r0" depart="180.7"/>
  <vehicle id="veh71" type="car" route="r0" depart="181.9"/>
  <vehicle id="veh72" type="scooter" route="r2" depart="182.0"/>
  <vehicle id="veh73" type="car" route="r7" depart="185.5"/>
  <vehicle id="veh74" type="scooter" route="r1" depart="187.0"/>
  <vehicle id="veh75" type="car" route="r6" depart="188.6"/>
  <vehicle id="veh76" type="car" route="r7" depart="190.4"/>
  <vehicle id="veh77" type="car" route="r10" depart="194.9"/>
  <vehicle id="veh78" type="car" route="r2" depart="199.0"/>
  <vehicle id="veh79" type="bus" route="r10" depart="199.7"/>
  <vehicle id="veh80" type="scooter" route="r4" depart="201.0"/>
  <vehicle id="veh81" type="car" route="r9" depart="201.2"/>
  <vehicle id="veh82" type="truck" route="r9" depart="205.0"/>
  <vehicle id="veh83" type="car" route="r2" depart="208.0"/>
  <vehicle id="veh84" type="bus" route="r2" depart="211.0"/>
  <vehicle id="veh85" type="bus" route="r11" depart="211.7"/>
  <vehicle id="veh86" type="car" route="r1" depart="213.4"/>
  <vehicle id="veh87" type="car" route="r1" depart="216.2"/>
  <vehicle id="veh88" type="car" route="r0" depart="221.1"/>
  <vehicle id="veh89" type="truck" route="r10" depart="224.4"/>
  <vehicle id="veh90" type="car" route="r1" depart="228.6"/>
  <vehicle id="veh91" type="truck" route="r10" depart="231.8"/>
  <vehicle id="veh92" type="truck" route="r4" depart="236.0"/>
  <vehicle id="veh93" type="car" route="r9" depart="239.2"/>
  <vehicle id="veh94" type="bus" route="r3" depart="240.5"/>
  <vehicle id="veh95" type="car" route="r9" depart="244.3"/>
  <vehicle id="veh96" type="car" route="r4" depart="245.3"/>
  <vehicle id="veh97" type="car" route="r8" depart="250.2"/>
  <vehicle id="veh98" type="bus" route="r10" depart="250.8"/>
  <vehicle id="veh99" type="car" route="r9" depart="255.1"/>
  <vehicle id="veh100" type="car" route="r2" depart="258.6"/>
  <vehicle id="veh101" type="truck" route="r6" depart="259.3"/>
  <vehicle id="veh102" type="bus" route="r4" depart="263.6"/>
  <vehicle id="veh103" type="scooter" route="r5" depart="265.5"/>
  <vehicle id="veh104" type="car" route="r10" depart="269.5"/>
  <vehicle id="veh105" type="bus" route="r0" depart="269.5"/>
  <vehicle id="veh106" type="car" route="r4" depart="272.1"/>
  <vehicle id="veh107" type="car" route="r5" depart="272.8"/>
  <vehicle id="veh108" type="car" route="r8" depart="273.7"/>
  <vehicle id="veh109" type="car" route="r6" depart="277.9"/>
  <vehicle id="veh110" type="car" route="r7" depart="279.4"/>
  <vehicle id="veh111" type="car" route="r11" depart="280.4"/>
  <vehicle id="veh112" type="bus" route="r6" depart="282.0"/>
  <vehicle id="veh113" type="car" route="r10" depart="282.5"/>
  <vehicle id="veh114" type="scooter" route="r11" depart="282.9"/>
  <vehicle id="veh115" type="car" route="r7" depart="286.3"/>
  <vehicle id="veh116" type="scooter" route="r1" depart="290.4"/>
  <vehicle id="veh117" type="car" route="r11" depart="290.8"/>
  <vehicle id="veh118" type="car" route="r4" depart="295.6"/>
  <vehicle id="veh119" type="car" route="r0" depart="295.8"/>
  <vehicle id="veh120" type="car" route="r0" depart="299.8"/>
  <vehicle id="veh121" type="truck" route="r3" depart="303.1"/>
  <vehicle id="veh122" type="car" route="r11" depart="307.1"/>
  <vehicle id="veh123" type="car" route="r8" depart="311.8"/>
  <vehicle id="veh124" type="truck" route="r2" depart="313.9"/>
  <vehicle id="veh125" type="scooter" route="r1" depart="316.5"/>
  <vehicle id="veh126" type="bus" route="r10" depart="320.3"/>
  <vehicle id="veh127" type="car" route="r9" depart="324.9"/>
  <vehicle id="veh128" type="car" route="r8" depart="329.7"/>
  <vehicle id="veh129" type="bus" route="r8" depart="331.1"/>
  <vehicle id="veh130" type="car" route="r0" depart="332.9"/>
  <vehicle id="veh131" type="car" route="r0" depart="334.8"/>
  <vehicle id="veh132" type="car" route="r6" depart="335.3"/>
  <vehicle id="veh133" type="scooter" route="r7" depart="339.1"/>
  <vehicle id="veh134" type="car" route="r2" depart="342.0"/>
  <vehicle id="veh135" type="scooter" route="r8" depart="343.1"/>
  <vehicle id="veh136" type="scooter" route="r3" depart="346.5"/>
  <vehicle id="veh137" type="truck" route="r8" depart="347.3"/>
  <vehicle id="veh138" type="car" route="r11" depart="349.9"/>
  <vehicle id="veh139" type="car" route="r10" depart="354.5"/>
  <vehicle id="veh140" type="car" route="r5" depart="358.1"/>
  <vehicle id="veh141" type="bus" route="r0" depart="361.7"/>
  <vehicle id="veh142" type="truck" route="r8" depart="361.7"/>
  <vehicle id="veh143" type="bus" route="r11" depart="366.3"/>
  <vehicle id="veh144" type="car" route="r6" depart="370.9"/>
  <vehicle id="veh145" type="car" route="r0" depart="371.9"/>
  <vehicle id="veh146" type="scooter" route="r8" depart="374.4"/>
  <vehicle id="veh147" type="scooter" route="r6" depart="379.4"/>
  <vehicle id="veh148" type="truck" route="r2" depart="382.4"/>
  <vehicle id="veh149" type="car" route="r3" depart="386.0"/>
  <vehicle id="veh150" type="car" route="r4" depart="386.7"/>
  <vehicle id="veh151" type="car" route="r7" depart="391.3"/>
  <vehicle id="veh152" type="car" route="r4" depart="394.6"/>
  <vehicle id="veh153" type="scooter" route="r6" depart="399.4"/>
  <vehicle id="veh154" type="car" route="r2" depart="403.0"/>
  <vehicle id="veh155" type="scooter" route="r7" depart="406.7"/>
  <vehicle id="veh156" type="bus" route="r0" depart="408.5"/>
  <vehicle id="veh157" type="car" route="r4" depart="409.7"/>
  <vehicle id="veh158" type="car" route="r3" depart="412.9"/>
  <vehicle id="veh159" type="bus" route="r7" depart="414.6"/>
  <vehicle id="veh160" type="bus" route="r2" depart="414.8"/>
  <vehicle id="veh161" type="car" route="r1" depart="417.4"/>
  <vehicle id="veh162" type="bus" route="r8" depart="419.2"/>
  <vehicle id="veh163" type="bus" route="r11" depart="421.8"/>
  <vehicle id="veh164" type="car" route="r8" depart="423.0"/>
  <vehicle id="veh165" type="scooter" route="r10" depart="426.7"/>
  <vehicle id="veh166" type="car" route="r3" depart="430.3"/>
  <vehicle id="veh167" type="scooter" route="r3" depart="432.7"/>
  <vehicle id="veh168" type="scooter" route="r5" depart="433.2"/>
  <vehicle id="veh169" type="scooter" route="r0" depart="434.4"/>
  <vehicle id="veh170" type="bus" route="r10" depart="438.2"/>
  <vehicle id="veh171" type="scooter" route="r10" depart="439.3"/>
  <vehicle id="veh172" type="car" route="r10" depart="442.4"/>
  <vehicle id="veh173" type="car" route="r1" depart="446.9"/>
  <vehicle id="veh174" type="car" route="r4" depart="448.6"/>
  <vehicle id="veh175" type="bus" route="r9" depart="451.2"/>
  <vehicle id="veh176" type="car" route="r3" depart="452.9"/>
  <vehicle id="veh177" type="bus" route="r0" depart="456.9"/>
  <vehicle id="veh178" type="car" route="r11" depart="459.3"/>
  <vehicle id="veh179" type="scooter" route="r3" depart="460.5"/>
  <vehicle id="veh180" type="scooter" route="r11" depart="460.9"/>
  <vehicle id="veh181" type="car" route="r3" depart="462.1"/>
  <vehicle id="veh182" type="scooter" route="r4" depart="466.7"/>
  <vehicle id="veh183" type="car" route="r3" depart="470.8"/>
  <vehicle id="veh184" type="bus" route="r5" depart="472.8"/>
  <vehicle id="veh185" type="car" route="r7" depart="477.2"/>
  <vehicle id="veh186" type="bus" route="r1" depart="477.6"/>
  <vehicle id="veh187" type="car" route="r5" depart="479.6"/>
  <vehicle id="veh188" type="bus" route="r10" depart="484.1"/>
  <vehicle id="veh189" type="car" route="r6" depart="485.6"/>
  <vehicle id="veh190" type="bus" route="r5" depart="488.1"/>
  <vehicle id="veh191" type="car" route="r10" depart="491.8"/>
  <vehicle id="veh192" type="car" route="r4" depart="494.8"/>
  <vehicle id="veh193" type="car" route="r2" depart="497.7"/>
  <vehicle id="veh194" type="scooter" route="r3" depart="498.5"/>
  <vehicle id="veh195" type="car" route="r9" depart="501.8"/>
  <vehicle id="veh196" type="car" route="r9" depart="502.3"/>
  <vehicle id="veh197" type="scooter" route="r0" depart="504.9"/>
  <vehicle id="veh198" type="car" route="r0" depart="507.3"/>
  <vehicle id="veh199" type="scooter" route="r6" depart="509.9"/>
  <vehicle id="veh200" type="car" route="r3" depart="514.1"/>
  <vehicle id="veh201" type="car" route="r9" depart="515.8"/>
  <vehicle id="veh202" type="car" route="r9" depart="519.7"/>
  <vehicle id="veh203" type="car" route="r4" depart="520.9"/>
  <vehicle id="veh204" type="car" route="r2" depart="525.7"/>
  <vehicle id="veh205" type="car" route="r8" depart="528.5"/>
  <vehicle id="veh206" type="scooter" route="r4" depart="533.2"/>
  <vehicle id="veh207" type="car" route="r6" depart="538.0"/>
  <vehicle id="veh208" type="scooter" route="r10" depart="538.0"/>
  <vehicle id="veh209" type="scooter" route="r9" depart="538.2"/>
  <vehicle id="veh210" type="car" route="r9" depart="540.9"/>
  <vehicle id="veh211" type="car" route="r3" depart="543.5"/>
  <vehicle id="veh212" type="car" route="r8" depart="546.3"/>
  <vehicle id="veh213" type="car" route="r1" depart="547.8"/>
  <vehicle id="veh214" type="bus" route="r3" depart="552.6"/>
  <vehicle id="veh215" type="car" route="r9" depart="552.8"/>
  <vehicle id="veh216" type="scooter" route="r2" depart="556.8"/>
  <vehicle id="veh217" type="car" route="r8" depart="558.0"/>
  <vehicle id="veh218" type="car" route="r6" depart="560.3"/>
  <vehicle id="veh219" type="bus" route="r1" depart="565.2"/>
  <vehicle id="veh220" type="car" route="r4" depart="567.7"/>
  <vehicle id="veh221" type="car" route="r7" depart="569.4"/>
  <vehicle id="veh222" type="scooter" route="r6" depart="570.4"/>
  <vehicle id="veh223" type="car" route="r7" depart="574.0"/>
  <vehicle id="veh224" type="car" route="r0" depart="577.7"/>
  <vehicle id="veh225" type="bus" route="r4" depart="581.4"/>
  <vehicle id="veh226" type="bus" route="r8" depart="585.9"/>
  <vehicle id="veh227" type="bus" route="r11" depart="586.5"/>
  <vehicle id="veh228" type="scooter" route="r11" depart="589.9"/>
  <vehicle id="veh229" type="truck" route="r10" depart="594.5"/>
  <vehicle id="veh230" type="truck" route="r3" depart="597.5"/>
  <vehicle id="veh231" type="car" route="r11" depart="598.0"/>
  <vehicle id="veh232" type="scooter" route="r2" depart="600.5"/>
  <vehicle id="veh233" type="car" route="r4" depart="603.4"/>
  <vehicle id="veh234" type="scooter" route="r6" depart="606.5"/>
  <vehicle id="veh235" type="scooter" route="r2" depart="607.8"/>
  <vehicle id="veh236" type="truck" route="r11" depart="608.3"/>
  <vehicle id="veh237" type="car" route="r6" depart="611.0"/>
  <vehicle id="veh238" type="car" route="r6" depart="614.2"/>
  <vehicle id="veh239" type="car" route="r9" depart="616.9"/>
  <vehicle id="veh240" type="truck" route="r2" depart="620.1"/>
  <vehicle id="veh241" type="car" route="r1" depart="621.1"/>
  <vehicle id="veh242" type="scooter" route="r3" depart="621.2"/>
  <vehicle id="veh243" type="car" route="r4" depart="625.8"/>
  <vehicle id="veh244" type="scooter" route="r9" depart="630.3"/>
  <vehicle id="veh245" type="truck" route="r7" depart="634.6"/>
  <vehicle id="veh246" type="car" route="r7" depart="638.1"/>
  <vehicle id="veh247" type="truck" route="r10" depart="640.3"/>
  <vehicle id="veh248" type="bus" route="r4" depart="643.2"/>
  <vehicle id="veh249" type="bus" route="r3" depart="643.5"/>
  <vehicle id="veh250" type="truck" route="r10" depart="645.8"/>
  <vehicle id="veh251" type="car" route="r2" depart="650.4"/>
  <vehicle id="veh252" type="bus" route="r1" depart="653.3"/>
  <vehicle id="veh253" type="bus" route="r5" depart="656.9"/>
  <vehicle id="veh254" type="car" route="r0" depart="661.8"/>
  <vehicle id="veh255" type="scooter" route="r10" depart="665.6"/>
  <vehicle id="veh256" type="car" route="r8" depart="669.8"/>
  <vehicle id="veh257" type="car" route="r11" depart="671.6"/>
  <vehicle id="veh258" type="bus" route="r3" depart="675.3"/>
  <vehicle id="veh259" type="car" route="r1" depart="680.0"/>
  <vehicle id="veh260" type="truck" route="r7" depart="682.9"/>
  <vehicle id="veh261" type="car" route="r4" depart="684.8"/>
  <vehicle id="veh262" type="truck" route="r7" depart="687.1"/>
  <vehicle id="veh263" type="car" route="r9" depart="689.4"/>
  <vehicle id="veh264" type="bus" route="r1" depart="691.0"/>
  <vehicle id="veh265" type="bus" route="r6" depart="692.7"/>
  <vehicle id="veh266" type="bus" route="r9" depart="693.9"/>
  <vehicle id="veh267" type="car" route="r1" depart="696.0"/>
  <vehicle id="veh268" type="car" route="r11" depart="697.3"/>
  <vehicle id="veh269" type="car" route="r11" depart="699.1"/>
  <vehicle id="veh270" type="car" route="r10" depart="703.5"/>
  <vehicle id="veh271" type="truck" route="r5" depart="707.9"/>
  <vehicle id="veh272" type="car" route="r7" depart="708.6"/>
  <vehicle id="veh273" type="scooter" route="r9" depart="711.5"/>
  <vehicle id="veh274" type="car" route="r3" depart="714.3"/>
  <vehicle id="veh275" type="scooter" route="r1" depart="716.6"/>
  <vehicle id="veh276" type="scooter" route="r4" depart="720.0"/>
  <vehicle id="veh277" type="car" route="r0" depart="724.1"/>
  <vehicle id="veh278" type="bus" route="r5" depart="728.5"/>
  <vehicle id="veh279" type="car" route="r7" depart="732.4"/>
  <vehicle id="veh280" type="car" route="r6" depart="733.3"/>
  <vehicle id="veh281" type="car" route="r3" depart="738.1"/>
  <vehicle id="veh282" type="truck" route="r10" depart="738.3"/>
  <vehicle id="veh283" type="bus" route="r11" depart="740.6"/>
  <vehicle id="veh284" type="bus" route="r11" depart="743.4"/>
  <vehicle id="veh285" type="scooter" route="r6" depart="744.3"/>
  <vehicle id="veh286" type="car" route="r9" depart="747.4"/>
  <vehicle id="veh287" type="scooter" route="r9" depart="747.7"/>
  <vehicle id="veh288" type="car" route="r11" depart="750.2"/>
  <vehicle id="veh289" type="scooter" route="r10" depart="750.8"/>
  <vehicle id="veh290" type="bus" route="r2" depart="754.7"/>
  <vehicle id="veh291" type="scooter" route="r10" depart="757.9"/>
  <vehicle id="veh292" type="car" route="r9" depart="761.9"/>
  <vehicle id="veh293" type="car" route="r4" depart="765.5"/>
  <vehicle id="veh294" type="scooter" route="r4" depart="767.5"/>
  <vehicle id="veh295" type="car" route="r4" depart="769.8"/>
  <vehicle id="veh296" type="car" route="r3" depart="771.0"/>
  <vehicle id="veh297" type="scooter" route="r0" depart="773.5"/>
  <vehicle id="veh298" type="scooter" route="r1" depart="775.0"/>
  <vehicle id="veh299" type="bus" route="r6" depart="777.7"/>
</routes>
