<routes>
  <vType id="car" accel="1.0" decel="4.5" maxSpeed="25" length="5"/>
  <vType id="truck" accel="0.5" decel="3.0" maxSpeed="18" length="12"/>
  <vType id="bus" accel="0.8" decel="3.5" maxSpeed="20" length="10"/>
  <vType id="scooter" accel="1.5" decel="4.0" maxSpeed="30" length="2"/>
  <route id="r0" edges="-north east"/>
  <route id="r1" edges="-north south"/>
  <route id="r2" edges="-north west"/>
  <route id="r3" edges="-east north"/>
  <route id="r4" edges="-east south"/>
  <route id="r5" edges="-east west"/>
  <route id="r6" edges="-south north"/>
  <route id="r7" edges="-south east"/>
  <route id="r8" edges="-south west"/>
  <route id="r9" edges="-west north"/>
  <route id="r10" edges="-west east"/>
  <route id="r11" edges="-west south"/>
  <vehicle id="veh0" type="car" route="r6" depart="0.0"/>
  <vehicle id="veh1" type="scooter" route="r0" depart="1.0"/>
  <vehicle id="veh2" type="scooter" route="r2" depart="2.1"/>
  <vehicle id="veh3" type="scooter" route="r6" depart="4.2"/>
  <vehicle id="veh4" type="car" route="r5" depart="6.4"/>
  <vehicle id="veh5" type="car" route="r5" depart="7.2"/>
  <vehicle id="veh6" type="scooter" route="r11" depart="8.0"/>
  <vehicle id="veh7" type="car" route="r3" depart="11.2"/>
  <vehicle id="veh8" type="car" route="r3" depart="15.4"/>
  <vehicle id="veh9" type="car" route="r1" depart="19.3"/>
  <vehicle id="veh10" type="car" route="r8" depart="24.0"/>
  <vehicle id="veh11" type="car" route="r6" depart="25.2"/>
  <vehicle id="veh12" type="scooter" route="r5" depart="27.4"/>
  <vehicle id="veh13" type="truck" route="r11" depart="28.3"/>
  <vehicle id="veh14" type="bus" route="r11" depart="29.7"/>
  <vehicle id="veh15" type="car" route="r9" depart="30.0"/>
  <vehicle id="veh16" type="bus" route="r1" depart="31.6"/>
  <vehicle id="veh17" type="truck" route="r3" depart="32.2"/>
  <vehicle id="veh18" type="car" route="r0" depart="34.0"/>
  <vehicle id="veh19" type="car" route="r9" depart="38.8"/>
  <vehicle id="veh20" type="scooter" route="r10" depart="41.6"/>
  <vehicle id="veh21" type="car" route="r0" depart="45.4"/>
  <vehicle id="veh22" type="car" route="r7" depart="46.6"/>
  <vehicle id="veh23" type="bus" route="r1" depart="48.6"/>
  <vehicle id="veh24" type="car" route="r5" depart="52.9"/>
  <vehicle id="veh25" type="scooter" route="r7" depart="54.8"/>
  <vehicle id="veh26" type="car" route="r1" depart="59.5"/>
  <vehicle id="veh27" type="bus" route="r8" depart="60.0"/>
  <vehicle id="veh28" type="car" route="r1" depart="63.6"/>
  <vehicle id="veh29" type="bus" route="r1" depart="65.7"/>
  <vehicle id="veh30" type="car" route="r6" depart="70.5"/>
  <vehicle id="veh31" type="car" route="r0" depart="71.2"/>
  <vehicle id="veh32" type="car" route="r0" depart="73.2"/>
  <vehicle id="veh33" type="car" route="r11" depart="77.2"/>
  <vehicle id="veh34" type="bus" route="r4" depart="79.1"/>
  <vehicle id="veh35" type="car" route="r9" depart="83.4"/>
  <vehicle id="veh36" type="car" route="r6" depart="88.3"/>
  <vehicle id="veh37" type="car" route="r4" depart="91.2"/>
  <vehicle id="veh38" type="scooter" route="r0" depart="96.2"/>
  <vehicle id="veh39" type="scooter" route="r0" depart="100.6"/>
  <vehicle id="veh40" type="bus" route="r3" depart="104.0"/>
  <vehicle id="veh41" type="car" route="r4" depart="105.5"/>
  <vehicle id="veh42" type="car" route="r5" depart="109.6"/>
  <vehicle id="veh43" type="scooter" route="r4" depart="114.5"/>
  <vehicle id="veh44" type="car" route="r0" depart="118.0"/>
  <vehicle id="veh45" type="car" route="r6" depart="118.9"/>
  <vehicle id="veh46" type="car" route="r6" depart="123.6"/>
  <vehicle id="veh47" type="car" route="r1" depart="124.9"/>
  <vehicle id="veh48" type="car" route="r0" depart="128.2"/>
  <vehicle id="veh49" type="scooter" route="r1" depart="129.8"/>
  <vehicle id="veh50" type="car" route="r5" depart="132.3"/>
  <vehicle id="veh51" type="truck" route="r5" depart="133.3"/>
  <vehicle id="veh52" type="car" route="r9" depart="133.4"/>
  <vehicle id="veh53" type="scooter" route="r9" depart="134.5"/>
  <vehicle id="veh54" type="car" route="r6" depart="138.3"/>
  <vehicle id="veh55" type="car" route="r0" depart="143.1"/>
  <vehicle id="veh56" type="truck" route="r3" depart="147.1"/>
  <vehicle id="veh57" type="bus" route="r10" depart="148.9"/>
  <vehicle id="veh58" type="bus" route="r3" depart="151.9"/>
  <vehicle id="veh59" type="car" route="r8" depart="153.8"/>
  <vehicle id="veh60" type="truck" route="r2" depart="155.8"/>
  <vehicle id="veh61" type="car" route="r2" depart="157.3"/>
  <vehicle id="veh62" type="scooter" route="r5" depart="161.0"/>
  <vehicle id="veh63" type="bus" route="r5" depart="163.6"/>
  <vehicle id="veh64" type="truck" route="r7" depart="165.5"/>
  <vehicle id="veh65" type="car" route="r0" depart="169.9"/>
  <vehicle id="veh66" type="scooter" route="r11" depart="171.8"/>
  <vehicle id="veh67" type="car" route="r1" depart="175.4"/>
  <vehicle id="veh68" type="bus" route="r7" depart="176.0"/>
  <vehicle id="veh69" type="bus" route="r1" depart="177.6"/>
  <vehicle id="veh70" type="scooter" route="r1" depart="180.4"/>
  <vehicle id="veh71" type="truck" route="r5" depart="180.8"/>
  <vehicle id="veh72" type="bus" route="r10" depart="184.0"/>
  <vehicle id="veh73" type="truck" route="r6" depart="187.8"/>
  <vehicle id="veh74" type="scooter" route="r11" depart="191.9"/>
  <vehicle id="veh75" type="car" route="r11" depart="192.3"/>
  <vehicle id="veh76" type="car" route="r5" depart="195.4"/>
  <vehicle id="veh77" type="bus" route="r11" depart="198.9"/>
  <vehicle id="veh78" type="car" route="r3" depart="203.3"/>
  <vehicle id="veh79" type="bus" route="r9" depart="205.5"/>
  <vehicle id="veh80" type="bus" route="r1" depart="206.9"/>
  <vehicle id="veh81" type="car" route="r11" depart="208.9"/>
  <vehicle id="veh82" type="car" route="r9" depart="213.3"/>
  <vehicle id="veh83" type="bus" route="r4" depart="213.9"/>
  <vehicle id="veh84" type="car" route="r8" depart="214.0"/>
  <vehicle id="veh85" type="truck" route="r2" depart="214.1"/>
  <vehicle id="veh86" type="car" route="r11" depart="219.0"/>
  <vehicle id="veh87" type="car" route="r11" depart="222.5"/>
  <vehicle id="veh88" type="truck" route="r7" depart="222.7"/>
  <vehicle id="veh89" type="bus" route="r4" depart="224.6"/>
  <vehicle id="veh90" type="scooter" route="r0" depart="226.8"/>
  <vehicle id="veh91" type="scooter" route="r8" depart="227.3"/>
  <vehicle id="veh92" type="car" route="r9" depart="230.5"/>
  <vehicle id="veh93" type="scooter" route="r9" depart="234.9"/>
  <vehicle id="veh94" type="scooter" route="r11" depart="239.1"/>
  <vehicle id="veh95" type="car" route="r7" depart="241.9"/>
  <vehicle id="veh96" type="truck" route="r3" depart="245.3"/>
  <vehicle id="veh97" type="bus" route="r4" depart="250.1"/>
  <vehicle id="veh98" type="bus" route="r11" depart="254.1"/>
  <vehicle id="veh99" type="scooter" route="r10" depart="254.3"/>
  <vehicle id="veh100" type="scooter" route="r7" depart="257.9"/>
  <vehicle id="veh101" type="scooter" route="r2" depart="258.6"/>
  <vehicle id="veh102" type="truck" route="r2" depart="259.1"/>
  <vehicle id="veh103" type="bus" route="r0" depart="262.0"/>
  <vehicle id="veh104" type="car" route="r0" depart="263.9"/>
  <vehicle id="veh105" type="car" route="r8" depart="268.0"/>
  <vehicle id="veh106" type="car" route="r1" depart="270.0"/>
  <vehicle id="veh107" type="scooter" route="r3" depart="274.7"/>
  <vehicle id="veh108" type="car" route="r2" depart="279.0"/>
  <vehicle id="veh109" type="bus" route="r1" depart="280.6"/>
  <vehicle id="veh110" type="bus" route="r3" depart="285.1"/>
  <vehicle id="veh111" type="car" route="r7" depart="286.6"/>
  <vehicle id="veh112" type="scooter" route="r5" depart="290.8"/>
  <vehicle id="veh113" type="car" route="r2" depart="292.4"/>
  <vehicle id="veh114" type="car" route="r6" depart="293.8"/>
  <vehicle id="veh115" type="car" route="r3" depart="296.8"/>
  <vehicle id="veh116" type="car" route="r11" depart="296.8"/>
  <vehicle id="veh117" type="car" route="r9" depart="297.3"/>
  <vehicle id="veh118" type="bus" route="r1" depart="297.6"/>
  <vehicle id="veh119" type="bus" route="r9" depart="298.9"/>
  <vehicle id="veh120" type="car" route="r5" depart="299.3"/>
  <vehicle id="veh121" type="car" route="r9" depart="299.8"/>
  <vehicle id="veh122" type="car" route="r4" depart="304.6"/>
  <vehicle id="veh123" type="car" route="r2" depart="307.0"/>
  <vehicle id="veh124" type="bus" route="r3" depart="308.4"/>
  <vehicle id="veh125" type="bus" route="r0" depart="311.4"/>
  <vehicle id="veh126" type="truck" route="r6" depart="313.3"/>
  <vehicle id="veh127" type="car" route="r4" depart="317.8"/>
  <vehicle id="veh128" type="car" route="r3" depart="322.6"/>
  <vehicle id="veh129" type="scooter" route="r0" depart="322.9"/>
  <vehicle id="veh130" type="bus" route="r10" depart="323.8"/>
  <vehicle id="veh131" type="bus" route="r4" depart="324.3"/>
  <vehicle id="veh132" type="scooter" route="r6" depart="327.4"/>
  <vehicle id="veh133" type="car" route="r11" depart="328.5"/>
  <vehicle id="veh134" type="car" route="r6" depart="333.1"/>
  <vehicle id="veh135" type="car" route="r4" depart="334.6"/>
  <vehicle id="veh136" type="car" route="r7" depart="335.2"/>
  <vehicle id="veh137" type="car" route="r6" depart="337.8"/>
  <vehicle id="veh138" type="bus" route="r2" depart="338.0"/>
  <vehicle id="veh139" type="scooter" route="r0" depart="339.3"/>
  <vehicle id="veh140" type="scooter" route="r2" depart="340.9"/>
  <vehicle id="veh141" type="bus" route="r1" depart="342.6"/>
  <vehicle id="veh142" type="truck" route="r8" depart="344.0"/>
  <vehicle id="veh143" type="car" route="r3" depart="346.2"/>
  <vehicle id="veh144" type="car" route="r0" depart="350.2"/>
  <vehicle id="veh145" type="car" route="r1" depart="352.1"/>
  <vehicle id="veh146" type="car" route="r0" depart="356.0"/>
  <vehicle id="veh147" type="car" route="r2" depart="357.8"/>
  <vehicle id="veh148" type="car" route="r8" depart="360.4"/>
  <vehicle id="veh149" type="bus" route="r10" depart="362.8"/>
  <vehicle id="veh150" type="car" route="r11" depart="367.2"/>
  <vehicle id="veh151" type="bus" route="r9" depart="370.1"/>
  <vehicle id="veh152" type="car" route="r0" depart="373.4"/>
  <vehicle id="veh153" type="scooter" route="r1" depart="375.1"/>
  <vehicle id="veh154" type="scooter" route="r6" depart="378.1"/>
  <vehicle id="veh155" type="bus" route="r10" depart="378.2"/>
  <vehicle id="veh156" type="truck" route="r9" depart="382.1"/>
  <vehicle id="veh157" type="car" route="r9" depart="382.6"/>
  <vehicle id="veh158" type="truck" route="r11" depart="383.0"/>
  <vehicle id="veh159" type="truck" route="r11" depart="387.3"/>
  <vehicle id="veh160" type="scooter" route="r2" depart="391.0"/>
  <vehicle id="veh161" type="car" route="r7" depart="394.7"/>
  <vehicle id="veh162" type="car" route="r2" depart="398.4"/>
  <vehicle id="veh163" type="scooter" route="r9" depart="401.8"/>
  <vehicle id="veh164" type="car" route="r7" depart="404.4"/>
  <vehicle id="veh165" type="bus" route="r7" depart="405.8"/>
  <vehicle id="veh166" type="car" route="r2" depart="408.6"/>
  <vehicle id="veh167" type="car" route="r3" depart="412.7"/>
  <vehicle id="veh168" type="bus" route="r8" depart="416.2"/>
  <vehicle id="veh169" type="car" route="r6" depart="419.4"/>
  <vehicle id="veh170" type="car" route="r2" depart="421.7"/>
  <vehicle id="veh171" type="car" route="r3" depart="422.6"/>
  <vehicle id="veh172" type="bus" route="r4" depart="423.2"/>
  <vehicle id="veh173" type="truck" route="r1" depart="425.7"/>
  <vehicle id="veh174" type="truck" route="r11" depart="428.2"/>
  <vehicle id="veh175" type="bus" route="r8" depart="429.4"/>
  <vehicle id="veh176" type="scooter" route="r5" depart="429.7"/>
  <vehicle id="veh177" type="scooter" route="r8" depart="432.8"/>
  <vehicle id="veh178" type="truck" route="r7" depart="434.0"/>
  <vehicle id="veh179" type="truck" route="r4" depart="435.6"/>
  <vehicle id="veh180" type="truck" route="r8" depart="435.7"/>
  <vehicle id="veh181" type="car" route="r11" depart="437.8"/>
  <vehicle id="veh182" type="scooter" route="r2" depart="441.0"/>
  <vehicle id="veh183" type="bus" route="r0" depart="442.1"/>
  <vehicle id="veh184" type="bus" route="r2" depart="446.1"/>
  <vehicle id="veh185" type="bus" route="r8" depart="446.8"/>
  <vehicle id="veh186" type="scooter" route="r4" depart="449.4"/>
  <vehicle id="veh187" type="car" route="r5" depart="451.0"/>
  <vehicle id="veh188" type="car" route="r10" depart="451.0"/>
  <vehicle id="veh189" type="truck" route="r2" depart="451.9"/>
  <vehicle id="veh190" type="scooter" route="r8" depart="456.4"/>
  <vehicle id="veh191" type="car" route="r0" depart="459.3"/>
  <vehicle id="veh192" type="car" route="r1" depart="463.6"/>
  <vehicle id="veh193" type="car" route="r9" depart="466.6"/>
  <vehicle id="veh194" type="scooter" route="r10" depart="471.2"/>
  <vehicle id="veh195" type="car" route="r0" depart="473.1"/>
  <vehicle id="veh196" type="car" route="r10" depart="473.9"/>
  <vehicle id="veh197" type="bus" route="r3" depart="475.8"/>
  <vehicle id="veh198" type="scooter" route="r0" depart="478.7"/>
  <vehicle id="veh199" type="bus" route="r5" depart="482.2"/>
  <vehicle id="veh200" type="truck" route="r6" depart="485.9"/>
  <vehicle id="veh201" type="car" route="r5" depart="489.7"/>
  <vehicle id="veh202" type="scooter" route="r4" depart="492.0"/>
  <vehicle id="veh203" type="truck" route="r2" depart="492.6"/>
  <vehicle id="veh204" type="car" route="r10" depart="497.5"/>
  <vehicle id="veh205" type="car" route="r7" depart="500.0"/>
  <vehicle id="veh206" type="car" route="r1" depart="504.3"/>
  <vehicle id="veh207" type="car" route="r6" depart="508.6"/>
  <vehicle id="veh208" type="scooter" route="r10" depart="510.1"/>
  <vehicle id="veh209" type="bus" route="r8" depart="514.1"/>
  <vehicle id="veh210" type="truck" route="r9" depart="517.7"/>
  <vehicle id="veh211" type="car" route="r4" depart="520.8"/>
  <vehicle id="veh212" type="scooter" route="r1" depart="521.6"/>
  <vehicle id="veh213" type="car" route="r9" depart="523.2"/>
  <vehicle id="veh214" type="scooter" route="r1" depart="527.6"/>
  <vehicle id="veh215" type="bus" route="r3" depart="532.0"/>
  <vehicle id="veh216" type="scooter" route="r1" depart="535.4"/>
  <vehicle id="veh217" type="bus" route="r4" depart="539.6"/>
  <vehicle id="veh218" type="scooter" route="r6" depart="542.1"/>
  <vehicle id="veh219" type="scooter" route="r4" depart="546.0"/>
  <vehicle id="veh220" type="car" route="r6" depart="549.6"/>
  <vehicle id="veh221" type="car" route="r5" depart="552.7"/>
  <vehicle id="veh222" type="car" route="r2" depart="554.2"/>
  <vehicle id="veh223" type="car" route="r0" depart="557.1"/>
  <vehicle id="veh224" type="scooter" route="r8" depart="559.7"/>
  <vehicle id="veh225" type="car" route="r5" depart="562.2"/>
  <vehicle id="veh226" type="car" route="r8" depart="562.9"/>
  <vehicle id="veh227" type="car" route="r8" depart="566.7"/>
  <vehicle id="veh228" type="car" route="r2" depart="571.5"/>
  <vehicle id="veh229" type="car" route="r5" depart="574.9"/>
  <vehicle id="veh230" type="car" route="r1" depart="576.2"/>
  <vehicle id="veh231" type="car" route="r3" depart="578.8"/>
  <vehicle id="veh232" type="car" route="r1" depart="583.0"/>
  <vehicle id="veh233" type="truck" route="r4" depart="587.2"/>
  <vehicle id="veh234" type="car" route="r10" depart="592.1"/>
  <vehicle id="veh235" type="bus" route="r3" depart="592.8"/>
  <vehicle id="veh236" type="car" route="r4" depart="593.3"/>
  <vehicle id="veh237" type="bus" route="r9" depart="594.6"/>
  <vehicle id="veh238" type="scooter" route="r7" depart="597.1"/>
  <vehicle id="veh239" type="bus" route="r4" depart="600.4"/>
  <vehicle id="veh240" type="scooter" route="r11" depart="602.5"/>
  <vehicle id="veh241" type="truck" route="r10" depart="604.7"/>
  <vehicle id="veh242" type="scooter" route="r10" depart="606.0"/>
  <vehicle id="veh243" type="car" route="r4" depart="607.0"/>
  <vehicle id="veh244" type="car" route="r10" depart="609.2"/>
  <vehicle id="veh245" type="scooter" route="r8" depart="609.3"/>
  <vehicle id="veh246" type="truck" route="r8" depart="611.3"/>
  <vehicle id="veh247" type="truck" route="r2" depart="616.3"/>
  <vehicle id="veh248" type="car" route="r4" depart="616.7"/>
  <vehicle id="veh249" type="truck" route="r0" depart="619.7"/>
  <vehicle id="veh250" type="car" route="r4" depart="623.6"/>
  <vehicle id="veh251" type="car" route="r1" depart="626.0"/>
  <vehicle id="veh252" type="scooter" route="r7" depart="627.9"/>
  <vehicle id="veh253" type="car" route="r9" depart="631.0"/>
  <vehicle id="veh254" type="car" route="r9" depart="633.1"/>
  <vehicle id="veh255" type="car" route="r7" depart="633.3"/>
  <vehicle id="veh256" type="scooter" route="r9" depart="636.1"/>
  <vehicle id="veh257" type="bus" route="r1" depart="636.8"/>
  <vehicle id="veh258" type="car" route="r7" depart="640.3"/>
  <vehicle id="veh259" type="car" route="r7" depart="644.6"/>
  <vehicle id="veh260" type="car" route="r8" depart="648.1"/>
  <vehicle id="veh261" type="scooter" route="r6" depart="649.3"/>
  <vehicle id="veh262" type="scooter" route="r6" depart="651.1"/>
  <vehicle id="veh263" type="truck" route="r6" depart="652.8"/>
  <vehicle id="veh264" type="car" route="r10" depart="656.1"/>
  <vehicle id="veh265" type="scooter" route="r5" depart="658.7"/>
  <vehicle id="veh266" type="car" route="r2" depart="661.9"/>
  <vehicle id="veh267" type="car" route="r5" depart="666.1"/>
  <vehicle id="veh268" type="car" route="r1" depart="670.2"/>
  <vehicle id="veh269" type="car" route="r9" depart="673.9"/>
  <vehicle id="veh270" type="truck" route="r5" depart="676.7"/>
  <vehicle id="veh271" type="car" route="r8" depart="676.9"/>
  <vehicle id="veh272" type="bus" route="r5" depart="681.3"/>
  <vehicle id="veh273" type="car" route="r6" depart="686.1"/>
  <vehicle id="veh274" type="car" route="r7" depart="687.2"/>
  <vehicle id="veh275" type="bus" route="r2" depart="688.9"/>
  <vehicle id="veh276" type="scooter" route="r10" depart="693.0"/>
  <vehicle id="veh277" type="car" route="r6" depart="697.2"/>
  <vehicle id="veh278" type="car" route="r1" depart="698.9"/>
  <vehicle id="veh279" type="bus" route="r4" depart="699.3"/>
  <vehicle id="veh280" type="car" route="r1" depart="699.9"/>
  <vehicle id="veh281" type="car" route="r0" depart="700.1"/>
  <vehicle id="veh282" type="car" route="r8" depart="700.8"/>
  <vehicle id="veh283" type="truck" route="r5" depart="703.9"/>
  <vehicle id="veh284" type="car" route="r0" depart="706.6"/>
  <vehicle id="veh285" type="car" route="r3" depart="711.1"/>
  <vehicle id="veh286" type="car" route="r2" depart="713.0"/>
  <vehicle id="veh287" type="car" route="r3" depart="713.4"/>
  <vehicle id="veh288" type="car" route="r3" depart="715.4"/>
  <vehicle id="veh289" type="scooter" route="r5" depart="715.7"/>
  <vehicle id="veh290" type="car" route="r4" depart="716.6"/>
  <vehicle id="veh291" type="car" route="r3" depart="719.7"/>
  <vehicle id="veh292" type="truck" route="r1" depart="719.8"/>
  <vehicle id="veh293" type="scooter" route="r5" depart="723.2"/>
  <vehicle id="veh294" type="car" route="r6" depart="724.6"/>
  <vehicle id="veh295" type="scooter" route="r4" depart="726.7"/>
  <vehicle id="veh296" type="car" route="r3" depart="729.7"/>
  <vehicle id="veh297" type="car" route="r5" depart="730.9"/>
  <vehicle id="veh298" type="car" route="r4" depart="732.3"/>
  <vehicle id="veh299" type="car" route="r4" depart="735.2"/>
  <vehicle id="veh300" type="car" route="r10" depart="739.5"/>
  <vehicle id="veh301" type="car" route="r6" depart="743.9"/>
  <vehicle id="veh302" type="truck" route="r10" depart="747.4"/>
  <vehicle id="veh303" type="car" route="r7" depart="749.2"/>
  <vehicle id="veh304" type="bus" route="r8" depart="749.7"/>
  <vehicle id="veh305" type="truck" route="r10" depart="750.5"/>
  <vehicle id="veh306" type="scooter" route="r11" depart="755.2"/>
  <vehicle id="veh307" type="scooter" route="r9" depart="760.2"/>
  <vehicle id="veh308" type="scooter" route="r9" depart="762.1"/>
  <vehicle id="veh309" type="truck" route="r0" depart="763.3"/>
  <vehicle id="veh310" type="car" route="r8" depart="763.8"/>
  <vehicle id="veh311" type="scooter" route="r9" depart="766.4"/>
  <vehicle id="veh312" type="scooter" route="r10" depart="767.8"/>
  <vehicle id="veh313" type="scooter" route="r11" depart="769.7"/>
  <vehicle id="veh314" type="truck" route="r7" depart="769.8"/>
  <vehicle id="veh315" type="bus" route="r0" depart="772.0"/>
  <vehicle id="veh316" type="scooter" route="r11" depart="773.9"/>
  <vehicle id="veh317" type="car" route="r9" depart="778.3"/>
  <vehicle id="veh318" type="bus" route="r3" depart="782.9"/>
  <vehicle id="veh319" type="car" route="r4" depart="785.5"/>
  <vehicle id="veh320" type="scooter" route="r5" depart="790.4"/>
  <vehicle id="veh321" type="car" route="r9" depart="793.2"/>
  <vehicle id="veh322" type="truck" route="r4" depart="793.5"/>
  <vehicle id="veh323" type="car" route="r9" depart="796.1"/>
  <vehicle id="veh324" type="scooter" route="r8" depart="798.7"/>
  <vehicle id="veh325" type="car" route="r1" depart="802.7"/>
  <vehicle id="veh326" type="car" route="r10" depart="807.7"/>
  <vehicle id="veh327" type="scooter" route="r5" depart="809.3"/>
  <vehicle id="veh328" type="bus" route="r5" depart="812.8"/>
  <vehicle id="veh329" type="car" route="r9" depart="815.4"/>
  <vehicle id="veh330" type="truck" route="r0" depart="820.2"/>
  <vehicle id="veh331" type="scooter" route="r10" depart="821.8"/>
  <vehicle id="veh332" type="car" route="r10" depart="823.9"/>
  <vehicle id="veh333" type="car" route="r8" depart="826.6"/>
  <vehicle id="veh334" type="scooter" route="r10" depart="827.9"/>
  <vehicle id="veh335" type="car" route="r1" depart="829.0"/>
  <vehicle id="veh336" type="car" route="r9" depart="831.7"/>
  <vehicle id="veh337" type="scooter" route="r8" depart="834.3"/>
  <vehicle id="veh338" type="scooter" route="r4" depart="835.7"/>
  <vehicle id="veh339" type="truck" route="r8" depart="838.5"/>
  <vehicle id="veh340" type="car" route="r7" depart="840.3"/>
  <vehicle id="veh341" type="car" route="r3" depart="842.5"/>
  <vehicle id="veh342" type="bus" route="r3" depart="844.1"/>
  <vehicle id="veh343" type="scooter" route="r9" depart="844.3"/>
  <vehicle id="veh344" type="truck" route="r3" depart="845.7"/>
  <vehicle id="veh345" type="car" route="r6" depart="849.0"/>
  <vehicle id="veh346" type="car" route="r3" depart="852.8"/>
  <vehicle id="veh347" type="bus" route="r1" depart="856.5"/>
  <vehicle id="veh348" type="scooter" route="r1" depart="857.4"/>
  <vehicle id="veh349" type="car" route="r11" depart="860.1"/>
  <vehicle id="veh350" type="car" route="r0" depart="861.2"/>
  <vehicle id="veh351" type="bus" route="r11" depart="863.1"/>
  <vehicle id="veh352" type="scooter" route="r11" depart="867.2"/>
  <vehicle id="veh353" type="car" route="r2" depart="870.0"/>
  <vehicle id="veh354" type="truck" route="r7" depart="870.3"/>
  <vehicle id="veh355" type="truck" route="r0" depart="874.0"/>
  <vehicle id="veh356" type="car" route="r5" depart="877.2"/>
  <vehicle id="veh357" type="scooter" route="r6" depart="878.9"/>
  <vehicle id="veh358" type="bus" route="r9" depart="883.2"/>
  <vehicle id="veh359" type="bus" route="r10" depart="886.3"/>
  <vehicle id="veh360" type="bus" route="r8" depart="889.2"/>
  <vehicle id="veh361" type="scooter" route="r3" depart="890.3"/>
  <vehicle id="veh362" type="bus" route="r4" depart="893.3"/>
  <vehicle id="veh363" type="car" route="r7" depart="893.5"/>
  <vehicle id="veh364" type="car" route="r7" depart="894.0"/>
  <vehicle id="veh365" type="car" route="r8" depart="894.8"/>
  <vehicle id="veh366" type="car" route="r9" depart="898.4"/>
  <vehicle id="veh367" type="scooter" route="r6" depart="900.1"/>
  <vehicle id="veh368" type="car" route="r10" depart="901.9"/>
  <vehicle id="veh369" type="car" route="r1" depart="906.3"/>
  <vehicle id="veh370" type="car" route="r3" depart="908.3"/>
  <vehicle id="veh371" type="car" route="r8" depart="909.6"/>
  <vehicle id="veh372" type="bus" route="r1" depart="910.0"/>
  <vehicle id="veh373" type="car" route="r11" depart="914.9"/>
  <vehicle id="veh374" type="scooter" route="r4" depart="915.3"/>
  <vehicle id="veh375" type="truck" route="r0" depart="920.1"/>
  <vehicle id="veh376" type="truck" route="r3" depart="922.3"/>
  <vehicle id="veh377" type="truck" route="r4" depart="926.9"/>
  <vehicle id="veh378" type="bus" route="r6" depart="928.4"/>
  <vehicle id="veh379" type="scooter" route="r0" depart="933.1"/>
  <vehicle id="veh380" type="car" route="r8" depart="937.6"/>
  <vehicle id="veh381" type="truck" route="r11" depart="940.4"/>
  <vehicle id="veh382" type="car" route="r7" depart="943.5"/>
  <vehicle id="veh383" type="scooter" route="r3" depart="944.7"/>
  <vehicle id="veh384" type="scooter" route="r5" depart="949.6"/>
  <vehicle id="veh385" type="bus" route="r9" depart="954.5"/>
  <vehicle id="veh386" type="car" route="r3" depart="959.3"/>
  <vehicle id="veh387" type="scooter" route="r6" depart="963.5"/>
  <vehicle id="veh388" type="car" route="r2" depart="966.8"/>
  <vehicle id="veh389" type="car" route="r4" depart="967.1"/>
  <vehicle id="veh390" type="bus" route="r7" depart="968.8"/>
  <vehicle id="veh391" type="truck" route="r1" depart="972.8"/>
  <vehicle id="veh392" type="truck" route="r11" depart="976.0"/>
  <vehicle id="veh393" type="car" route="r8" depart="978.0"/>
  <vehicle id="veh394" type="scooter" route="r8" depart="978.1"/>
  <vehicle id="veh395" type="scooter" route="r1" depart="981.0"/>
  <vehicle id="veh396" type="car" route="r2" depart="981.6"/>
  <vehicle id="veh397" type="car" route="r5" depart="984.0"/>
  <vehicle id="veh398" type="scooter" route="r9" depart="987.0"/>
  <vehicle id="veh399" type="car" route="r9" depart="990.3"/>
  <vehicle id="veh400" type="car" route="r4" depart="992.7"/>
  <vehicle id="veh401" type="truck" route="r11" depart="994.7"/>
  <vehicle id="veh402" type="car" route="r1" depart="997.9"/>
  <vehicle id="veh403" type="car" route="r10" depart="1000.0"/>
  <vehicle id="veh404" type="bus" route="r7" depart="1003.8"/>
  <vehicle id="veh405" type="truck" route="r11" depart="1004.0"/>
  <vehicle id="veh406" type="car" route="r2" depart="1008.2"/>
  <vehicle id="veh407" type="scooter" route="r8" depart="1011.6"/>
  <vehicle id="veh408" type="bus" route="r11" depart="1013.3"/>
  <vehicle id="veh409" type="car" route="r1" depart="1016.8"/>
  <vehicle id="veh410" type="car" route="r2" depart="1021.4"/>
  <vehicle id="veh411" type="scooter" route="r8" depart="1021.5"/>
  <vehicle id="veh412" type="bus" route="r2" depart="1024.5"/>
  <vehicle id="veh413" type="car" route="r6" depart="1027.0"/>
  <vehicle id="veh414" type="bus" route="r1" depart="1027.1"/>
  <vehicle id="veh415" type="car" route="r1" depart="1031.5"/>
  <vehicle id="veh416" type="scooter" route="r4" depart="1031.7"/>
  <vehicle id="veh417" type="scooter" route="r5" depart="1032.2"/>
  <vehicle id="veh418" type="truck" route="r4" depart="1033.4"/>
  <vehicle id="veh419" type="car" route="r0" depart="1034.1"/>
  <vehicle id="veh420" type="car" route="r11" depart="1034.4"/>
  <vehicle id="veh421" type="car" route="r5" depart="1034.6"/>
  <vehicle id="veh422" type="bus" route="r11" depart="1039.2"/>
  <vehicle id="veh423" type="car" route="r5" depart="1042.7"/>
  <vehicle id="veh424" type="scooter" route="r11" depart="1044.3"/>
  <vehicle id="veh425" type="car" route="r5" depart="1047.5"/>
  <vehicle id="veh426" type="bus" route="r0" depart="1049.0"/>
  <vehicle id="veh427" type="car" route="r7" depart="1053.9"/>
  <vehicle id="veh428" type="car" route="r11" depart="1055.4"/>
  <vehicle id="veh429" type="scooter" route="r1" depart="1055.4"/>
  <vehicle id="veh430" type="car" route="r4" depart="1059.9"/>
  <vehicle id="veh431" type="car" route="r5" depart="1063.4"/>
  <vehicle id="veh432" type="scooter" route="r8" depart="1066.7"/>
  <vehicle id="veh433" type="car" route="r0" depart="1070.7"/>
  <vehicle id="veh434" type="car" route="r6" depart="1072.3"/>
  <vehicle id="veh435" type="bus" route="r9" depart="1076.0"/>
  <vehicle id="veh436" type="bus" route="r1" depart="1076.1"/>
  <vehicle id="veh437" type="scooter" route="r10" depart="1079.9"/>
  <vehicle id="veh438" type="car" route="r6" depart="1084.4"/>
  <vehicle id="veh439" type="car" route="r4" depart="1088.7"/>
  <vehicle id="veh440" type="car" route="r1" depart="1091.2"/>
  <vehicle id="veh441" type="car" route="r6" depart="1094.3"/>
  <vehicle id="veh442" type="scooter" route="r1" depart="1095.0"/>
  <vehicle id="veh443" type="scooter" route="r11" depart="1098.3"/>
  <vehicle id="veh444" type="bus" route="r0" depart="1101.9"/>
  <vehicle id="veh445" type="car" route="r9" depart="1106.3"/>
  <vehicle id="veh446" type="car" route="r11" depart="1107.6"/>
  <vehicle id="veh447" type="car" route="r10" depart="1110.7"/>
  <vehicle id="veh448" type="car" route="r8" depart="1114.6"/>
  <vehicle id="veh449" type="bus" route="r3" depart="1118.4"/>
  <vehicle id="veh450" type="scooter" route="r9" depart="1121.0"/>
  <vehicle id="veh451" type="bus" route="r0" depart="1125.8"/>
  <vehicle id="veh452" type="scooter" route="r5" depart="1126.4"/>
  <vehicle id="veh453" type="bus" route="r2" depart="1128.3"/>
  <vehicle id="veh454" type="car" route="r10" depart="1132.3"/>
  <vehicle id="veh455" type="car" route="r7" depart="1136.8"/>
  <vehicle id="veh456" type="car" route="r4" depart="1139.8"/>
  <vehicle id="veh457" type="car" route="r7" depart="1142.7"/>
  <vehicle id="veh458" type="bus" route="r3" depart="1142.7"/>
  <vehicle id="veh459" type="bus" route="r11" depart="1145.4"/>
  <vehicle id="veh460" type="scooter" route="r8" depart="1146.3"/>
  <vehicle id="veh461" type="car" route="r5" depart="1148.6"/>
  <vehicle id="veh462" type="car" route="r7" depart="1150.2"/>