<routes>
  <vType id="car" accel="1.0" decel="4.5" maxSpeed="25" length="5"/>
  <vType id="truck" accel="0.5" decel="3.0" maxSpeed="18" length="12"/>
  <vType id="bus" accel="0.8" decel="3.5" maxSpeed="20" length="10"/>
  <vType id="scooter" accel="1.5" decel="4.0" maxSpeed="30" length="2"/>
  <route id="r0" edges="-north east"/>
  <route id="r1" edges="-north south"/>
  <route id="r2" edges="-north west"/>
  <route id="r3" edges="-east north"/>
  <route id="r4" edges="-east south"/>
  <route id="r5" edges="-east west"/>
  <route id="r6" edges="-south north"/>
  <route id="r7" edges="-south east"/>
  <route id="r8" edges="-south west"/>
  <route id="r9" edges="-west north"/>
  <route id="r10" edges="-west east"/>
  <route id="r11" edges="-west south"/>
  <vehicle id="veh0" type="scooter" route="r2" depart="0.0"/>
  <vehicle id="veh1" type="bus" route="r5" depart="4.5"/>
  <vehicle id="veh2" type="car" route="r2" depart="6.1"/>
  <vehicle id="veh3" type="truck" route="r7" depart="9.3"/>
  <vehicle id="veh4" type="scooter" route="r2" depart="13.7"/>
  <vehicle id="veh5" type="car" route="r8" depart="17.1"/>
  <vehicle id="veh6" type="car" route="r2" depart="19.9"/>
  <vehicle id="veh7" type="car" route="r11" depart="23.3"/>
  <vehicle id="veh8" type="bus" route="r5" depart="25.2"/>
  <vehicle id="veh9" type="scooter" route="r8" depart="26.4"/>
  <vehicle id="veh10" type="car" route="r3" depart="30.6"/>
  <vehicle id="veh11" type="car" route="r4" depart="33.0"/>
  <vehicle id="veh12" type="scooter" route="r10" depart="36.3"/>
  <vehicle id="veh13" type="truck" route="r6" depart="37.4"/>
  <vehicle id="veh14" type="car" route="r9" depart="41.1"/>
  <vehicle id="veh15" type="truck" route="r7" depart="44.1"/>
  <vehicle id="veh16" type="car" route="r4" depart="46.9"/>
  <vehicle id="veh17" type="car" route="r8" depart="51.8"/>
  <vehicle id="veh18" type="car" route="r9" depart="53.3"/>
  <vehicle id="veh19" type="bus" route="r7" depart="54.7"/>
  <vehicle id="veh20" type="car" route="r4" depart="56.8"/>
  <vehicle id="veh21" type="bus" route="r4" depart="57.3"/>
  <vehicle id="veh22" type="bus" route="r6" depart="58.4"/>
  <vehicle id="veh23" type="bus" route="r2" depart="60.4"/>
  <vehicle id="veh24" type="bus" route="r4" depart="60.8"/>
  <vehicle id="veh25" type="bus" route="r2" depart="61.1"/>
  <vehicle id="veh26" type="bus" route="r8" depart="64.7"/>
  <vehicle id="veh27" type="bus" route="r0" depart="65.0"/>
  <vehicle id="veh28" type="truck" route="r8" depart="65.1"/>
  <vehicle id="veh29" type="car" route="r2" depart="68.8"/>
  <vehicle id="veh30" type="scooter" route="r2" depart="70.3"/>
  <vehicle id="veh31" type="car" route="r11" depart="72.1"/>
  <vehicle id="veh32" type="car" route="r2" depart="75.7"/>
  <vehicle id="veh33" type="car" route="r10" depart="77.6"/>
  <vehicle id="veh34" type="car" route="r8" depart="80.9"/>
  <vehicle id="veh35" type="truck" route="r10" depart="81.4"/>
  <vehicle id="veh36" type="truck" route="r10" depart="82.5"/>
  <vehicle id="veh37" type="bus" route="r4" depart="84.3"/>
  <vehicle id="veh38" type="bus" route="r6" depart="88.8"/>
  <vehicle id="veh39" type="car" route="r2" depart="91.1"/>
  <vehicle id="veh40" type="car" route="r1" depart="93.7"/>
  <vehicle id="veh41" type="car" route="r6" depart="96.3"/>
  <vehicle id="veh42" type="scooter" route="r7" depart="100.9"/>
  <vehicle id="veh43" type="car" route="r11" depart="105.6"/>
  <vehicle id="veh44" type="bus" route="r1" depart="107.9"/>
  <vehicle id="veh45" type="bus" route="r10" depart="111.6"/>
  <vehicle id="veh46" type="car" route="r4" depart="114.3"/>
  <vehicle id="veh47" type="bus" route="r7" depart="119.3"/>
  <vehicle id="veh48" type="car" route="r7" depart="122.5"/>
  <vehicle id="veh49" type="car" route="r2" depart="125.8"/>
  <vehicle id="veh50" type="scooter" route="r9" depart="126.3"/>
  <vehicle id="veh51" type="car" route="r10" depart="127.5"/>
  <vehicle id="veh52" type="car" route="r9" depart="131.1"/>
  <vehicle id="veh53" type="car" route="r8" depart="131.7"/>
  <vehicle id="veh54" type="car" route="r7" depart="136.2"/>
  <vehicle id="veh55" type="car" route="r4" depart="136.3"/>
  <vehicle id="veh56" type="car" route="r1" depart="139.4"/>
  <vehicle id="veh57" type="bus" route="r8" depart="141.3"/>
  <vehicle id="veh58" type="car" route="r2" depart="145.5"/>
  <vehicle id="veh59" type="car" route="r7" depart="146.4"/>
  <vehicle id="veh60" type="bus" route="r10" depart="148.7"/>
  <vehicle id="veh61" type="car" route="r6" depart="152.7"/>
  <vehicle id="veh62" type="car" route="r5" depart="155.8"/>
  <vehicle id="veh63" type="truck" route="r5" depart="156.1"/>
  <vehicle id="veh64" type="car" route="r7" depart="160.1"/>
  <vehicle id="veh65" type="truck" route="r5" depart="160.6"/>
  <vehicle id="veh66" type="car" route="r0" depart="164.2"/>
  <vehicle id="veh67" type="car" route="r8" depart="166.8"/>
  <vehicle id="veh68" type="scooter" route="r2" depart="168.8"/>
  <vehicle id="veh69" type="bus" route="r1" depart="173.3"/>
  <vehicle id="veh70" type="bus" route="r2" depart="176.9"/>
  <vehicle id="veh71" type="car" route="r10" depart="179.0"/>
  <vehicle id="veh72" type="car" route="r10" depart="183.0"/>
  <vehicle id="veh73" type="car" route="r10" depart="183.3"/>
  <vehicle id="veh74" type="bus" route="r6" depart="186.5"/>
  <vehicle id="veh75" type="truck" route="r11" depart="188.9"/>
  <vehicle id="veh76" type="car" route="r2" depart="189.3"/>
  <vehicle id="veh77" type="car" route="r0" depart="189.6"/>
  <vehicle id="veh78" type="car" route="r7" depart="191.3"/>
  <vehicle id="veh79" type="car" route="r0" depart="192.2"/>
  <vehicle id="veh80" type="car" route="r6" depart="192.8"/>
  <vehicle id="veh81" type="car" route="r9" depart="194.3"/>
  <vehicle id="veh82" type="scooter" route="r0" depart="196.2"/>
  <vehicle id="veh83" type="scooter" route="r7" depart="199.5"/>
  <vehicle id="veh84" type="car" route="r6" depart="202.1"/>
  <vehicle id="veh85" type="car" route="r11" depart="206.4"/>
  <vehicle id="veh86" type="scooter" route="r4" depart="210.5"/>
  <vehicle id="veh87" type="bus" route="r11" depart="213.0"/>
  <vehicle id="veh88" type="truck" route="r7" depart="214.4"/>
  <vehicle id="veh89" type="car" route="r8" depart="219.3"/>
  <vehicle id="veh90" type="scooter" route="r1" depart="219.5"/>
  <vehicle id="veh91" type="car" route="r6" depart="222.8"/>
  <vehicle id="veh92" type="car" route="r10" depart="225.8"/>
  <vehicle id="veh93" type="car" route="r1" depart="230.2"/>
  <vehicle id="veh94" type="car" route="r6" depart="232.9"/>
  <vehicle id="veh95" type="car" route="r6" depart="235.0"/>
  <vehicle id="veh96" type="car" route="r11" depart="239.5"/>
  <vehicle id="veh97" type="car" route="r0" depart="243.4"/>
  <vehicle id="veh98" type="truck" route="r1" depart="247.8"/>
  <vehicle id="veh99" type="truck" route="r8" depart="252.8"/>
  <vehicle id="veh100" type="car" route="r1" depart="254.4"/>
  <vehicle id="veh101" type="truck" route="r0" depart="255.5"/>
  <vehicle id="veh102" type="car" route="r9" depart="256.1"/>
  <vehicle id="veh103" type="car" route="r10" depart="260.0"/>
  <vehicle id="veh104" type="bus" route="r5" depart="260.2"/>
  <vehicle id="veh105" type="car" route="r0" depart="265.0"/>
  <vehicle id="veh106" type="car" route="r3" depart="269.4"/>
  <vehicle id="veh107" type="car" route="r6" depart="272.2"/>
  <vehicle id="veh108" type="car" route="r10" depart="276.2"/>
  <vehicle id="veh109" type="car" route="r2" depart="280.0"/>
  <vehicle id="veh110" type="car" route="r9" depart="280.9"/>
  <vehicle id="veh111" type="car" route="r9" depart="284.5"/>
  <vehicle id="veh112" type="scooter" route="r8" depart="288.0"/>
  <vehicle id="veh113" type="bus" route="r11" depart="292.8"/>
  <vehicle id="veh114" type="bus" route="r6" depart="294.0"/>
  <vehicle id="veh115" type="bus" route="r5" depart="294.0"/>
  <vehicle id="veh116" type="scooter" route="r6" depart="294.2"/>
  <vehicle id="veh117" type="bus" route="r9" depart="297.7"/>
  <vehicle id="veh118" type="car" route="r8" depart="300.2"/>
  <vehicle id="veh119" type="truck" route="r0" depart="301.6"/>
  <vehicle id="veh120" type="car" route="r0" depart="302.0"/>
  <vehicle id="veh121" type="car" route="r7" depart="305.0"/>
  <vehicle id="veh122" type="bus" route="r3" depart="309.0"/>
  <vehicle id="veh123" type="bus" route="r10" depart="310.4"/>
  <vehicle id="veh124" type="car" route="r5" depart="314.0"/>
  <vehicle id="veh125" type="truck" route="r2" depart="317.0"/>
  <vehicle id="veh126" type="bus" route="r0" depart="321.3"/>
  <vehicle id="veh127" type="bus" route="r10" depart="324.6"/>
  <vehicle id="veh128" type="car" route="r8" depart="328.4"/>
  <vehicle id="veh129" type="bus" route="r4" depart="328.7"/>
  <vehicle id="veh130" type="bus" route="r11" depart="332.1"/>
  <vehicle id="veh131" type="car" route="r9" depart="334.8"/>
  <vehicle id="veh132" type="car" route="r4" depart="335.3"/>
  <vehicle id="veh133" type="car" route="r7" depart="338.0"/>
  <vehicle id="veh134" type="car" route="r3" depart="340.5"/>
  <vehicle id="veh135" type="scooter" route="r5" depart="342.2"/>
  <vehicle id="veh136" type="car" route="r2" depart="342.6"/>
  <vehicle id="veh137" type="bus" route="r10" depart="344.6"/>
  <vehicle id="veh138" type="scooter" route="r7" depart="347.4"/>
  <vehicle id="veh139" type="car" route="r7" depart="348.3"/>
  <vehicle id="veh140" type="bus" route="r10" depart="352.3"/>
  <vehicle id="veh141" type="car" route="r4" depart="355.1"/>
  <vehicle id="veh142" type="bus" route="r5" depart="359.6"/>
  <vehicle id="veh143" type="car" route="r7" depart="360.9"/>
  <vehicle id="veh144" type="car" route="r9" depart="361.9"/>
  <vehicle id="veh145" type="car" route="r10" depart="365.7"/>
  <vehicle id="veh146" type="scooter" route="r9" depart="366.9"/>
  <vehicle id="veh147" type="car" route="r5" depart="369.9"/>
  <vehicle id="veh148" type="car" route="r0" depart="373.3"/>
  <vehicle id="veh149" type="scooter" route="r7" depart="377.4"/>
  <vehicle id="veh150" type="car" route="r9" depart="382.1"/>
  <vehicle id="veh151" type="scooter" route="r2" depart="383.3"/>
  <vehicle id="veh152" type="car" route="r2" depart="386.1"/>
  <vehicle id="veh153" type="bus" route="r9" depart="387.2"/>
  <vehicle id="veh154" type="bus" route="r10" depart="387.6"/>
  <vehicle id="veh155" type="car" route="r6" depart="388.6"/>
  <vehicle id="veh156" type="car" route="r3" depart="390.9"/>
  <vehicle id="veh157" type="car" route="r3" depart="394.5"/>
  <vehicle id="veh158" type="truck" route="r9" depart="397.1"/>
  <vehicle id="veh159" type="car" route="r8" depart="400.0"/>
  <vehicle id="veh160" type="car" route="r2" depart="400.2"/>
  <vehicle id="veh161" type="car" route="r1" depart="405.1"/>
  <vehicle id="veh162" type="car" route="r0" depart="408.7"/>
  <vehicle id="veh163" type="bus" route="r3" depart="410.8"/>
  <vehicle id="veh164" type="scooter" route="r8" depart="414.3"/>
  <vehicle id="veh165" type="car" route="r0" depart="415.0"/>
  <vehicle id="veh166" type="car" route="r9" depart="415.4"/>
  <vehicle id="veh167" type="scooter" route="r7" depart="419.6"/>
  <vehicle id="veh168" type="truck" route="r0" depart="420.9"/>
  <vehicle id="veh169" type="bus" route="r6" depart="422.7"/>
  <vehicle id="veh170" type="car" route="r9" depart="425.8"/>
  <vehicle id="veh171" type="bus" route="r7" depart="426.9"/>
  <vehicle id="veh172" type="car" route="r5" depart="431.6"/>
  <vehicle id="veh173" type="scooter" route="r11" depart="435.3"/>
  <vehicle id="veh174" type="car" route="r7" depart="437.9"/>
  <vehicle id="veh175" type="scooter" route="r9" depart="440.4"/>
  <vehicle id="veh176" type="bus" route="r8" depart="442.8"/>
  <vehicle id="veh177" type="bus" route="r4" depart="447.4"/>
  <vehicle id="veh178" type="car" route="r4" depart="447.7"/>
  <vehicle id="veh179" type="scooter" route="r11" depart="451.5"/>
  <vehicle id="veh180" type="scooter" route="r6" depart="451.7"/>
  <vehicle id="veh181" type="bus" route="r7" depart="455.2"/>
  <vehicle id="veh182" type="scooter" route="r6" depart="457.7"/>
  <vehicle id="veh183" type="car" route="r5" depart="460.9"/>
  <vehicle id="veh184" type="bus" route="r2" depart="461.9"/>
  <vehicle id="veh185" type="car" route="r4" depart="463.9"/>
  <vehicle id="veh186" type="car" route="r1" depart="468.7"/>
  <vehicle id="veh187" type="car" route="r10" depart="473.0"/>
  <vehicle id="veh188" type="car" route="r0" depart="476.4"/>
  <vehicle id="veh189" type="car" route="r4" depart="478.7"/>
  <vehicle id="veh190" type="truck" route="r10" depart="483.7"/>
  <vehicle id="veh191" type="scooter" route="r7" depart="488.5"/>
  <vehicle id="veh192" type="truck" route="r3" depart="489.7"/>
  <vehicle id="veh193" type="car" route="r11" depart="490.5"/>
  <vehicle id="veh194" type="scooter" route="r6" depart="492.2"/>
  <vehicle id="veh195" type="bus" route="r1" depart="496.4"/>
  <vehicle id="veh196" type="car" route="r10" depart="498.3"/>
  <vehicle id="veh197" type="bus" route="r3" depart="499.6"/>
  <vehicle id="veh198" type="car" route="r9" depart="504.4"/>
  <vehicle id="veh199" type="truck" route="r5" depart="505.3"/>
  <vehicle id="veh200" type="scooter" route="r5" depart="509.4"/>
  <vehicle id="veh201" type="car" route="r6" depart="510.1"/>
  <vehicle id="veh202" type="scooter" route="r8" depart="513.2"/>
  <vehicle id="veh203" type="bus" route="r11" depart="515.0"/>
  <vehicle id="veh204" type="scooter" route="r8" depart="517.3"/>
  <vehicle id="veh205" type="truck" route="r4" depart="517.7"/>
  <vehicle id="veh206" type="car" route="r0" depart="520.5"/>
  <vehicle id="veh207" type="car" route="r11" depart="523.5"/>
  <vehicle id="veh208" type="car" route="r6" depart="525.6"/>
  <vehicle id="veh209" type="car" route="r3" depart="527.0"/>
  <vehicle id="veh210" type="car" route="r8" depart="528.7"/>
  <vehicle id="veh211" type="scooter" route="r1" depart="530.9"/>
  <vehicle id="veh212" type="car" route="r1" depart="534.9"/>
  <vehicle id="veh213" type="car" route="r2" depart="537.4"/>
  <vehicle id="veh214" type="car" route="r7" depart="540.1"/>
  <vehicle id="veh215" type="bus" route="r5" depart="544.8"/>
  <vehicle id="veh216" type="truck" route="r1" depart="547.8"/>
  <vehicle id="veh217" type="car" route="r10" depart="549.2"/>
  <vehicle id="veh218" type="car" route="r7" depart="553.8"/>
  <vehicle id="veh219" type="bus" route="r2" depart="557.3"/>
  <vehicle id="veh220" type="truck" route="r7" depart="561.8"/>
  <vehicle id="veh221" type="car" route="r8" depart="562.9"/>
  <vehicle id="veh222" type="car" route="r10" depart="564.7"/>
  <vehicle id="veh223" type="car" route="r11" depart="565.6"/>
  <vehicle id="veh224" type="scooter" route="r2" depart="567.9"/>
  <vehicle id="veh225" type="car" route="r10" depart="569.1"/>
  <vehicle id="veh226" type="truck" route="r4" depart="573.0"/>
  <vehicle id="veh227" type="car" route="r9" depart="575.1"/>
  <vehicle id="veh228" type="bus" route="r5" depart="575.7"/>
  <vehicle id="veh229" type="truck" route="r10" depart="577.5"/>
  <vehicle id="veh230" type="car" route="r2" depart="578.6"/>
  <vehicle id="veh231" type="scooter" route="r7" depart="580.6"/>
  <vehicle id="veh232" type="scooter" route="r2" depart="583.0"/>
  <vehicle id="veh233" type="scooter" route="r10" depart="587.5"/>
  <vehicle id="veh234" type="car" route="r8" depart="589.9"/>
  <vehicle id="veh235" type="car" route="r5" depart="591.6"/>
  <vehicle id="veh236" type="truck" route="r4" depart="594.9"/>
  <vehicle id="veh237" type="bus" route="r6" depart="597.6"/>
  <vehicle id="veh238" type="bus" route="r5" depart="600.7"/>
  <vehicle id="veh239" type="car" route="r0" depart="601.8"/>
  <vehicle id="veh240" type="car" route="r9" depart="605.0"/>
  <vehicle id="veh241" type="car" route="r9" depart="607.2"/>
  <vehicle id="veh242" type="bus" route="r3" depart="608.0"/>
  <vehicle id="veh243" type="car" route="r5" depart="611.4"/>
  <vehicle id="veh244" type="truck" route="r9" depart="613.3"/>
  <vehicle id="veh245" type="truck" route="r6" depart="614.2"/>
  <vehicle id="veh246" type="bus" route="r11" depart="614.9"/>
  <vehicle id="veh247" type="car" route="r11" depart="617.4"/>
  <vehicle id="veh248" type="truck" route="r3" depart="619.6"/>
  <vehicle id="veh249" type="car" route="r3" depart="624.0"/>
  <vehicle id="veh250" type="bus" route="r9" depart="625.0"/>
  <vehicle id="veh251" type="car" route="r0" depart="626.6"/>
  <vehicle id="veh252" type="car" route="r6" depart="629.4"/>
  <vehicle id="veh253" type="car" route="r10" depart="634.2"/>
  <vehicle id="veh254" type="truck" route="r0" depart="634.9"/>
  <vehicle id="veh255" type="car" route="r0" depart="636.6"/>
  <vehicle id="veh256" type="scooter" route="r7" depart="641.1"/>
  <vehicle id="veh257" type="truck" route="r7" depart="644.5"/>
  <vehicle id="veh258" type="truck" route="r8" depart="645.1"/>
  <vehicle id="veh259" type="car" route="r5" depart="646.6"/>
  <vehicle id="veh260" type="scooter" route="r0" depart="646.9"/>
  <vehicle id="veh261" type="scooter" route="r0" depart="649.5"/>
  <vehicle id="veh262" type="bus" route="r5" depart="650.1"/>
  <vehicle id="veh263" type="car" route="r1" depart="651.7"/>
  <vehicle id="veh264" type="scooter" route="r5" depart="656.3"/>
  <vehicle id="veh265" type="bus" route="r7" depart="659.6"/>
  <vehicle id="veh266" type="scooter" route="r7" depart="664.1"/>
  <vehicle id="veh267" type="car" route="r1" depart="665.5"/>
  <vehicle id="veh268" type="car" route="r9" depart="667.5"/>
  <vehicle id="veh269" type="car" route="r5" depart="670.2"/>
  <vehicle id="veh270" type="scooter" route="r2" depart="672.2"/>
  <vehicle id="veh271" type="truck" route="r0" depart="676.6"/>
  <vehicle id="veh272" type="car" route="r6" depart="679.1"/>
  <vehicle id="veh273" type="car" route="r7" depart="680.2"/>
  <vehicle id="veh274" type="truck" route="r5" depart="684.6"/>
  <vehicle id="veh275" type="truck" route="r7" depart="686.6"/>
  <vehicle id="veh276" type="car" route="r2" depart="687.0"/>
  <vehicle id="veh277" type="car" route="r11" depart="687.7"/>
  <vehicle id="veh278" type="truck" route="r3" depart="691.8"/>
  <vehicle id="veh279" type="scooter" route="r2" depart="693.5"/>
  <vehicle id="veh280" type="car" route="r11" depart="696.3"/>
  <vehicle id="veh281" type="car" route="r6" depart="697.2"/>
  <vehicle id="veh282" type="truck" route="r10" depart="699.3"/>
  <vehicle id="veh283" type="car" route="r8" depart="703.0"/>
  <vehicle id="veh284" type="bus" route="r5" depart="708.0"/>
  <vehicle id="veh285" type="car" route="r5" depart="711.7"/>
  <vehicle id="veh286" type="truck" route="r4" depart="714.9"/>
  <vehicle id="veh287" type="car" route="r11" depart="716.2"/>
  <vehicle id="veh288" type="bus" route="r5" depart="720.1"/>
  <vehicle id="veh289" type="car" route="r4" depart="721.8"/>
  <vehicle id="veh290" type="car" route="r10" depart="722.2"/>
  <vehicle id="veh291" type="car" route="r11" depart="722.7"/>
  <vehicle id="veh292" type="scooter" route="r6" depart="725.8"/>
  <vehicle id="veh293" type="car" route="r10" depart="727.4"/>
  <vehicle id="veh294" type="car" route="r9" depart="731.6"/>
  <vehicle id="veh295" type="bus" route="r3" depart="731.6"/>
  <vehicle id="veh296" type="car" route="r1" depart="732.3"/>
  <vehicle id="veh297" type="car" route="r5" depart="734.7"/>
  <vehicle id="veh298" type="car" route="r5" depart="736.0"/>
  <vehicle id="veh299" type="bus" route="r9" depart="737.1"/>
  <vehicle id="veh300" type="car" route="r8" depart="741.1"/>
  <vehicle id="veh301" type="car" route="r3" depart="745.9"/>
  <vehicle id="veh302" type="car" route="r2" depart="747.4"/>
  <vehicle id="veh303" type="scooter" route="r4" depart="750.4"/>
  <vehicle id="veh304" type="scooter" route="r6" depart="754.6"/>
  <vehicle id="veh305" type="car" route="r11" depart="757.9"/>
  <vehicle id="veh306" type="car" route="r5" depart="762.5"/>
  <vehicle id="veh307" type="scooter" route="r10" depart="762.7"/>
  <vehicle id="veh308" type="truck" route="r1" depart="764.0"/>
  <vehicle id="veh309" type="car" route="r1" depart="767.5"/>
  <vehicle id="veh310" type="car" route="r5" depart="769.1"/>
  <vehicle id="veh311" type="bus" route="r4" depart="770.8"/>
  <vehicle id="veh312" type="truck" route="r11" depart="771.5"/>
  <vehicle id="veh313" type="bus" route="r2" depart="774.9"/>
  <vehicle id="veh314" type="scooter" route="r5" depart="776.9"/>
  <vehicle id="veh315" type="car" route="r11" depart="778.7"/>
  <vehicle id="veh316" type="car" route="r10" depart="779.2"/>
  <vehicle id="veh317" type="car" route="r6" depart="780.5"/>
  <vehicle id="veh318" type="car" route="r9" depart="783.0"/>
  <vehicle id="veh319" type="bus" route="r11" depart="787.6"/>
  <vehicle id="veh320" type="bus" route="r2" depart="789.1"/>
  <vehicle id="veh321" type="scooter" route="r9" depart="792.3"/>
  <vehicle id="veh322" type="scooter" route="r9" depart="797.0"/>
  <vehicle id="veh323" type="car" route="r8" depart="798.1"/>
  <vehicle id="veh324" type="car" route="r7" depart="801.5"/>
  <vehicle id="veh325" type="car" route="r6" depart="802.5"/>
  <vehicle id="veh326" type="car" route="r5" depart="806.7"/>
  <vehicle id="veh327" type="car" route="r5" depart="807.4"/>
  <vehicle id="veh328" type="car" route="r6" depart="810.8"/>
  <vehicle id="veh329" type="bus" route="r10" depart="811.3"/>
  <vehicle id="veh330" type="car" route="r6" depart="816.2"/>
  <vehicle id="veh331" type="bus" route="r3" depart="816.2"/>
  <vehicle id="veh332" type="car" route="r6" depart="817.0"/>
  <vehicle id="veh333" type="truck" route="r2" depart="821.9"/>
  <vehicle id="veh334" type="truck" route="r11" depart="823.0"/>
  <vehicle id="veh335" type="car" route="r7" depart="823.8"/>
  <vehicle id="veh336" type="truck" route="r7" depart="827.3"/>
  <vehicle id="veh337" type="bus" route="r2" depart="830.4"/>
  <vehicle id="veh338" type="car" route="r2" depart="832.7"/>
  <vehicle id="veh339" type="car" route="r7" depart="832.8"/>
  <vehicle id="veh340" type="car" route="r1" depart="836.5"/>
  <vehicle id="veh341" type="scooter" route="r6" depart="837.7"/>
  <vehicle id="veh342" type="car" route="r5" depart="840.1"/>
  <vehicle id="veh343" type="scooter" route="r3" depart="841.2"/>
  <vehicle id="veh344" type="car" route="r11" depart="841.5"/>
  <vehicle id="veh345" type="car" route="r1" depart="841.7"/>
  <vehicle id="veh346" type="car" route="r9" depart="846.3"/>
  <vehicle id="veh347" type="car" route="r4" depart="851.0"/>
  <vehicle id="veh348" type="car" route="r11" depart="852.0"/>
  <vehicle id="veh349" type="scooter" route="r9" depart="853.6"/>
  <vehicle id="veh350" type="car" route="r11" depart="854.4"/>
  <vehicle id="veh351" type="car" route="r10" depart="855.8"/>
  <vehicle id="veh352" type="scooter" route="r3" depart="860.5"/>
  <vehicle id="veh353" type="car" route="r9" depart="864.0"/>
  <vehicle id="veh354" type="scooter" route="r5" depart="868.7"/>
  <vehicle id="veh355" type="scooter" route="r7" depart="871.3"/>
  <vehicle id="veh356" type="car" route="r5" depart="874.4"/>
  <vehicle id="veh357" type="car" route="r10" depart="876.5"/>
  <vehicle id="veh358" type="bus" route="r6" depart="880.5"/>
  <vehicle id="veh359" type="car" route="r10" depart="883.7"/>
  <vehicle id="veh360" type="car" route="r6" depart="886.0"/>
  <vehicle id="veh361" type="car" route="r4" depart="888.9"/>
  <vehicle id="veh362" type="bus" route="r4" depart="891.6"/>
  <vehicle id="veh363" type="scooter" route="r7" depart="891.7"/>
  <vehicle id="veh364" type="car" route="r6" depart="896.4"/>
  <vehicle id="veh365" type="bus" route="r3" depart="899.7"/>
  <vehicle id="veh366" type="truck" route="r0" depart="903.6"/>
  <vehicle id="veh367" type="bus" route="r9" depart="903.9"/>
  <vehicle id="veh368" type="scooter" route="r10" depart="908.8"/>
  <vehicle id="veh369" type="car" route="r7" depart="912.1"/>
  <vehicle id="veh370" type="car" route="r4" depart="915.9"/>
  <vehicle id="veh371" type="car" route="r0" depart="917.2"/>
  <vehicle id="veh372" type="truck" route="r4" depart="919.3"/>
  <vehicle id="veh373" type="car" route="r9" depart="921.5"/>
  <vehicle id="veh374" type="scooter" route="r11" depart="924.5"/>
  <vehicle id="veh375" type="car" route="r4" depart="928.3"/>
  <vehicle id="veh376" type="bus" route="r0" depart="929.0"/>
  <vehicle id="veh377" type="car" route="r1" depart="931.4"/>
  <vehicle id="veh378" type="scooter" route="r6" depart="934.3"/>
  <vehicle id="veh379" type="scooter" route="r8" depart="939.1"/>
  <vehicle id="veh380" type="bus" route="r0" depart="942.4"/>
  <vehicle id="veh381" type="car" route="r8" depart="945.0"/>
  <vehicle id="veh382" type="car" route="r4" depart="945.1"/>
  <vehicle id="veh383" type="car" route="r5" depart="948.7"/>
  <vehicle id="veh384" type="car" route="r3" depart="951.3"/>
  <vehicle id="veh385" type="car" route="r8" depart="954.1"/>
  <vehicle id="veh386" type="scooter" route="r3" depart="956.2"/>
  <vehicle id="veh387" type="scooter" route="r11" depart="961.2"/>
  <vehicle id="veh388" type="bus" route="r0" depart="963.9"/>
  <vehicle id="veh389" type="car" route="r7" depart="964.6"/>
  <vehicle id="veh390" type="car" route="r5" depart="967.3"/>
  <vehicle id="veh391" type="scooter" route="r4" depart="970.2"/>
  <vehicle id="veh392" type="truck" route="r4" depart="974.1"/>
  <vehicle id="veh393" type="car" route="r5" depart="974.4"/>
  <vehicle id="veh394" type="car" route="r2" depart="976.5"/>
  <vehicle id="veh395" type="car" route="r0" depart="979.2"/>
  <vehicle id="veh396" type="scooter" route="r0" depart="982.1"/>
  <vehicle id="veh397" type="car" route="r11" depart="984.2"/>
  <vehicle id="veh398" type="car" route="r6" depart="987.7"/>
  <vehicle id="veh399" type="bus" route="r1" depart="988.2"/>
  <vehicle id="veh400" type="scooter" route="r11" depart="990.1"/>
  <vehicle id="veh401" type="truck" route="r0" depart="990.1"/>
  <vehicle id="veh402" type="car" route="r6" depart="994.5"/>
  <vehicle id="veh403" type="car" route="r5" depart="998.4"/>
  <vehicle id="veh404" type="truck" route="r9" depart="1003.3"/>
  <vehicle id="veh405" type="car" route="r8" depart="1007.7"/>
  <vehicle id="veh406" type="car" route="r0" depart="1009.6"/>
  <vehicle id="veh407" type="scooter" route="r9" depart="1012.7"/>
  <vehicle id="veh408" type="car" route="r10" depart="1014.6"/>
  <vehicle id="veh409" type="bus" route="r4" depart="1018.1"/>
  <vehicle id="veh410" type="scooter" route="r8" depart="1022.2"/>
  <vehicle id="veh411" type="car" route="r11" depart="1027.1"/>
  <vehicle id="veh412" type="scooter" route="r7" depart="1029.9"/>
  <vehicle id="veh413" type="truck" route="r7" depart="1033.1"/>
  <vehicle id="veh414" type="car" route="r0" depart="1034.8"/>
  <vehicle id="veh415" type="car" route="r0" depart="1036.3"/>
  <vehicle id="veh416" type="scooter" route="r11" depart="1040.4"/>
  <vehicle id="veh417" type="truck" route="r0" depart="1042.2"/>
  <vehicle id="veh418" type="car" route="r1" depart="1044.1"/>
  <vehicle id="veh419" type="bus" route="r1" depart="1047.5"/>
  <vehicle id="veh420" type="car" route="r9" depart="1049.4"/>
  <vehicle id="veh421" type="car" route="r10" depart="1050.9"/>
  <vehicle id="veh422" type="car" route="r10" depart="1054.0"/>
  <vehicle id="veh423" type="car" route="r9" depart="1056.9"/>
  <vehicle id="veh424" type="truck" route="r6" depart="1060.9"/>
  <vehicle id="veh425" type="car" route="r2" depart="1061.0"/>
  <vehicle id="veh426" type="bus" route="r2" depart="1063.3"/>
  <vehicle id="veh427" type="scooter" route="r7" depart="1068.2"/>
  <vehicle id="veh428" type="car" route="r3" depart="1068.4"/>
  <vehicle id="veh429" type="truck" route="r9" depart="1070.5"/>
  <vehicle id="veh430" type="scooter" route="r0" depart="1074.0"/>
  <vehicle id="veh431" type="car" route="r0" depart="1075.1"/>
  <vehicle id="veh432" type="scooter" route="r10" depart="1077.6"/>
  <vehicle id="veh433" type="car" route="r3" depart="1079.2"/>
  <vehicle id="veh434" type="car" route="r5" depart="1079.5"/>
  <vehicle id="veh435" type="bus" route="r11" depart="1084.3"/>
  <vehicle id="veh436" type="scooter" route="r7" depart="1085.8"/>
  <vehicle id="veh437" type="truck" route="r6" depart="1088.4"/>
  <vehicle id="veh438" type="bus" route="r9" depart="1091.7"/>
  <vehicle id="veh439" type="car" route="r1" depart="1092.5"/>
  <vehicle id="veh440" type="car" route="r2" depart="1096.0"/>
  <vehicle id="veh441" type="car" route="r8" depart="1100.7"/>
  <vehicle id="veh442" type="truck" route="r11" depart="1104.7"/>
  <vehicle id="veh443" type="scooter" route="r7" depart="1106.4"/>
  <vehicle id="veh444" type="car" route="r2" depart="1109.5"/>
  <vehicle id="veh445" type="bus" route="r2" depart="1112.3"/>
  <vehicle id="veh446" type="car" route="r7" depart="1116.8"/>
  <vehicle id="veh447" type="bus" route="r4" depart="1116.9"/>
  <vehicle id="veh448" type="scooter" route="r3" depart="1118.5"/>
  <vehicle id="veh449" type="scooter" route="r2" depart="1123.2"/>
  <vehicle id="veh450" type="car" route="r9" depart="1126.2"/>
  <vehicle id="veh451" type="car" route="r4" depart="1128.4"/>
  <vehicle id="veh452" type="scooter" route="r1" depart="1131.0"/>
  <vehicle id="veh453" type="car" route="r9" depart="1135.5"/>
  <vehicle id="veh454" type="truck" route="r0" depart="1136.8"/>
  <vehicle id="veh455" type="bus" route="r1" depart="1139.5"/>
  <vehicle id="veh456" type="car" route="r7" depart="1143.3"/>
  <vehicle id="veh457" type="scooter" route="r0" depart="1144.0"/>
  <vehicle id="veh458" type="car" route="r11" depart="1147.3"/>
  <vehicle id="veh459" type="bus" route="r4" depart="1150.8"/>
  <vehicle id="veh460" type="car" route="r8" depart="1154.4"/>
  <vehicle id="veh461" type="scooter" route="r11" depart="1155.2"/>
  <vehicle id="veh462" type="car" route="r9" depart="1157.5"/>
  <vehicle id="veh463" type="car" route="r5" depart="1161.2"/>