<routes>
  <vType id="car" accel="1.0" decel="4.5" maxSpeed="25" length="5"/>
  <vType id="truck" accel="0.5" decel="3.0" maxSpeed="18" length="12"/>
  <vType id="bus" accel="0.8" decel="3.5" maxSpeed="20" length="10"/>
  <vType id="scooter" accel="1.5" decel="4.0" maxSpeed="30" length="2"/>
  <route id="r0" edges="-north east"/>
  <route id="r1" edges="-north south"/>
  <route id="r2" edges="-north west"/>
  <route id="r3" edges="-east north"/>
  <route id="r4" edges="-east south"/>
  <route id="r5" edges="-east west"/>
  <route id="r6" edges="-south north"/>
  <route id="r7" edges="-south east"/>
  <route id="r8" edges="-south west"/>
  <route id="r9" edges="-west north"/>
  <route id="r10" edges="-west east"/>
  <route id="r11" edges="-west south"/>
  <vehicle id="veh0" type="bus" route="r11" depart="0.0"/>
  <vehicle id="veh1" type="scooter" route="r11" depart="3.0"/>
  <vehicle id="veh2" type="car" route="r4" depart="5.8"/>
  <vehicle id="veh3" type="bus" route="r9" depart="7.9"/>
  <vehicle id="veh4" type="truck" route="r3" depart="12.2"/>
  <vehicle id="veh5" type="car" route="r11" depart="12.8"/>
  <vehicle id="veh6" type="bus" route="r4" depart="14.5"/>
  <vehicle id="veh7" type="bus" route="r11" depart="15.2"/>
  <vehicle id="veh8" type="car" route="r2" depart="19.6"/>
  <vehicle id="veh9" type="scooter" route="r9" depart="20.8"/>
  <vehicle id="veh10" type="car" route="r10" depart="21.7"/>
  <vehicle id="veh11" type="bus" route="r0" depart="23.8"/>
  <vehicle id="veh12" type="car" route="r7" depart="26.7"/>
  <vehicle id="veh13" type="scooter" route="r2" depart="27.3"/>
  <vehicle id="veh14" type="car" route="r9" depart="32.0"/>
  <vehicle id="veh15" type="scooter" route="r0" depart="32.9"/>
  <vehicle id="veh16" type="car" route="r1" depart="35.0"/>
  <vehicle id="veh17" type="truck" route="r4" depart="36.0"/>
  <vehicle id="veh18" type="bus" route="r9" depart="40.1"/>
  <vehicle id="veh19" type="car" route="r11" depart="43.8"/>
  <vehicle id="veh20" type="car" route="r2" depart="48.0"/>
  <vehicle id="veh21" type="scooter" route="r11" depart="48.5"/>
  <vehicle id="veh22" type="scooter" route="r5" depart="52.6"/>
  <vehicle id="veh23" type="car" route="r10" depart="55.4"/>
  <vehicle id="veh24" type="scooter" route="r5" depart="56.6"/>
  <vehicle id="veh25" type="car" route="r10" depart="58.0"/>
  <vehicle id="veh26" type="truck" route="r5" depart="58.2"/>
  <vehicle id="veh27" type="car" route="r5" depart="61.4"/>
  <vehicle id="veh28" type="bus" route="r10" depart="64.5"/>
  <vehicle id="veh29" type="scooter" route="r9" depart="65.8"/>
  <vehicle id="veh30" type="bus" route="r11" depart="69.1"/>
  <vehicle id="veh31" type="car" route="r4" depart="72.9"/>
  <vehicle id="veh32" type="car" route="r11" depart="74.7"/>
  <vehicle id="veh33" type="scooter" route="r9" depart="75.5"/>
  <vehicle id="veh34" type="truck" route="r6" depart="79.7"/>
  <vehicle id="veh35" type="car" route="r9" depart="83.9"/>
  <vehicle id="veh36" type="scooter" route="r11" depart="84.6"/>
  <vehicle id="veh37" type="truck" route="r11" depart="87.9"/>
  <vehicle id="veh38" type="scooter" route="r11" depart="88.3"/>
  <vehicle id="veh39" type="car" route="r6" depart="92.9"/>
  <vehicle id="veh40" type="scooter" route="r5" depart="93.5"/>
  <vehicle id="veh41" type="scooter" route="r0" depart="98.2"/>
  <vehicle id="veh42" type="bus" route="r2" depart="98.3"/>
  <vehicle id="veh43" type="car" route="r1" depart="99.9"/>
  <vehicle id="veh44" type="scooter" route="r11" depart="101.7"/>
  <vehicle id="veh45" type="bus" route="r5" depart="105.0"/>
  <vehicle id="veh46" type="truck" route="r11" depart="109.1"/>
  <vehicle id="veh47" type="bus" route="r6" depart="109.3"/>
  <vehicle id="veh48" type="car" route="r11" depart="109.4"/>
  <vehicle id="veh49" type="car" route="r1" depart="110.8"/>
  <vehicle id="veh50" type="car" route="r5" depart="114.2"/>
  <vehicle id="veh51" type="truck" route="r11" depart="115.9"/>
  <vehicle id="veh52" type="car" route="r3" depart="116.2"/>
  <vehicle id="veh53" type="bus" route="r6" depart="118.4"/>
  <vehicle id="veh54" type="car" route="r8" depart="122.9"/>
  <vehicle id="veh55" type="car" route="r4" depart="123.4"/>
  <vehicle id="veh56" type="car" route="r10" depart="126.4"/>
  <vehicle id="veh57" type="car" route="r11" depart="127.7"/>
  <vehicle id="veh58" type="bus" route="r0" depart="132.3"/>
  <vehicle id="veh59" type="scooter" route="r11" depart="134.6"/>
  <vehicle id="veh60" type="scooter" route="r2" depart="138.3"/>
  <vehicle id="veh61" type="car" route="r11" depart="139.7"/>
  <vehicle id="veh62" type="bus" route="r11" depart="144.4"/>
  <vehicle id="veh63" type="bus" route="r5" depart="147.8"/>
  <vehicle id="veh64" type="bus" route="r8" depart="148.3"/>
  <vehicle id="veh65" type="car" route="r2" depart="149.0"/>
  <vehicle id="veh66" type="car" route="r3" depart="152.6"/>
  <vehicle id="veh67" type="car" route="r6" depart="155.1"/>
  <vehicle id="veh68" type="car" route="r11" depart="156.5"/>
  <vehicle id="veh69" type="car" route="r7" depart="159.8"/>
  <vehicle id="veh70" type="scooter" route="r6" depart="164.5"/>
  <vehicle id="veh71" type="car" route="r11" depart="169.2"/>
  <vehicle id="veh72" type="bus" route="r6" depart="170.1"/>
  <vehicle id="veh73" type="car" route="r9" depart="172.4"/>
  <vehicle id="veh74" type="car" route="r3" depart="174.0"/>
  <vehicle id="veh75" type="car" route="r4" depart="176.1"/>
  <vehicle id="veh76" type="car" route="r11" depart="177.6"/>
  <vehicle id="veh77" type="car" route="r11" depart="179.4"/>
  <vehicle id="veh78" type="car" route="r11" depart="183.2"/>
  <vehicle id="veh79" type="car" route="r1" depart="184.9"/>
  <vehicle id="veh80" type="scooter" route="r11" depart="185.7"/>
  <vehicle id="veh81" type="scooter" route="r11" depart="188.9"/>
  <vehicle id="veh82" type="car" route="r7" depart="191.9"/>
  <vehicle id="veh83" type="scooter" route="r7" depart="193.3"/>
  <vehicle id="veh84" type="bus" route="r5" depart="197.6"/>
  <vehicle id="veh85" type="car" route="r5" depart="201.3"/>
  <vehicle id="veh86" type="car" route="r10" depart="206.1"/>
  <vehicle id="veh87" type="car" route="r9" depart="208.3"/>
  <vehicle id="veh88" type="car" route="r10" depart="210.7"/>
  <vehicle id="veh89" type="truck" route="r3" depart="214.0"/>
  <vehicle id="veh90" type="car" route="r6" depart="214.4"/>
  <vehicle id="veh91" type="car" route="r5" depart="215.0"/>
  <vehicle id="veh92" type="car" route="r10" depart="219.7"/>
  <vehicle id="veh93" type="car" route="r4" depart="220.6"/>
  <vehicle id="veh94" type="car" route="r2" depart="222.6"/>
  <vehicle id="veh95" type="scooter" route="r11" depart="225.1"/>
  <vehicle id="veh96" type="car" route="r11" depart="229.7"/>
  <vehicle id="veh97" type="car" route="r0" depart="233.4"/>
  <vehicle id="veh98" type="scooter" route="r11" depart="234.5"/>
  <vehicle id="veh99" type="car" route="r0" depart="236.9"/>
  <vehicle id="veh100" type="bus" route="r5" depart="239.4"/>
  <vehicle id="veh101" type="car" route="r5" depart="244.3"/>
  <vehicle id="veh102" type="truck" route="r10" depart="245.7"/>
  <vehicle id="veh103" type="car" route="r3" depart="246.0"/>
  <vehicle id="veh104" type="car" route="r3" depart="249.5"/>
  <vehicle id="veh105" type="truck" route="r4" depart="251.2"/>
  <vehicle id="veh106" type="scooter" route="r9" depart="253.1"/>
  <vehicle id="veh107" type="car" route="r3" depart="254.1"/>
  <vehicle id="veh108" type="car" route="r2" depart="257.2"/>
  <vehicle id="veh109" type="scooter" route="r0" depart="262.1"/>
  <vehicle id="veh110" type="truck" route="r7" depart="264.4"/>
  <vehicle id="veh111" type="car" route="r9" depart="265.1"/>
  <vehicle id="veh112" type="bus" route="r2" depart="268.5"/>
  <vehicle id="veh113" type="bus" route="r11" depart="273.2"/>
  <vehicle id="veh114" type="bus" route="r0" depart="274.6"/>
  <vehicle id="veh115" type="car" route="r6" depart="275.7"/>
  <vehicle id="veh116" type="scooter" route="r6" depart="275.8"/>
  <vehicle id="veh117" type="bus" route="r1" depart="276.6"/>
  <vehicle id="veh118" type="bus" route="r11" depart="280.4"/>
  <vehicle id="veh119" type="bus" route="r10" depart="282.4"/>
  <vehicle id="veh120" type="car" route="r9" depart="282.5"/>
  <vehicle id="veh121" type="car" route="r11" depart="287.0"/>
  <vehicle id="veh122" type="car" route="r9" depart="291.6"/>
  <vehicle id="veh123" type="scooter" route="r5" depart="294.0"/>
  <vehicle id="veh124" type="scooter" route="r1" depart="296.5"/>
  <vehicle id="veh125" type="truck" route="r0" depart="298.7"/>
  <vehicle id="veh126" type="car" route="r2" depart="300.8"/>
  <vehicle id="veh127" type="bus" route="r11" depart="304.1"/>
  <vehicle id="veh128" type="bus" route="r0" depart="306.6"/>
  <vehicle id="veh129" type="car" route="r1" depart="308.7"/>
  <vehicle id="veh130" type="truck" route="r9" depart="312.5"/>
  <vehicle id="veh131" type="truck" route="r11" depart="317.1"/>
  <vehicle id="veh132" type="car" route="r3" depart="320.3"/>
  <vehicle id="veh133" type="car" route="r5" depart="325.0"/>
  <vehicle id="veh134" type="car" route="r10" depart="325.0"/>
  <vehicle id="veh135" type="car" route="r11" depart="328.8"/>
  <vehicle id="veh136" type="car" route="r1" depart="333.8"/>
  <vehicle id="veh137" type="car" route="r2" depart="338.3"/>
  <vehicle id="veh138" type="car" route="r2" depart="339.8"/>
  <vehicle id="veh139" type="scooter" route="r11" depart="341.3"/>
  <vehicle id="veh140" type="bus" route="r11" depart="341.3"/>
  <vehicle id="veh141" type="scooter" route="r6" depart="344.5"/>
  <vehicle id="veh142" type="scooter" route="r6" depart="345.1"/>
  <vehicle id="veh143" type="bus" route="r5" depart="348.4"/>
  <vehicle id="veh144" type="bus" route="r2" depart="350.6"/>
  <vehicle id="veh145" type="truck" route="r6" depart="355.5"/>
  <vehicle id="veh146" type="scooter" route="r9" depart="360.1"/>
  <vehicle id="veh147" type="car" route="r5" depart="362.3"/>
  <vehicle id="veh148" type="car" route="r11" depart="366.1"/>
  <vehicle id="veh149" type="scooter" route="r7" depart="369.4"/>
  <vehicle id="veh150" type="scooter" route="r6" depart="372.3"/>
  <vehicle id="veh151" type="scooter" route="r6" depart="373.2"/>
  <vehicle id="veh152" type="scooter" route="r11" depart="373.8"/>
  <vehicle id="veh153" type="scooter" route="r4" depart="376.6"/>
  <vehicle id="veh154" type="bus" route="r7" depart="378.3"/>
  <vehicle id="veh155" type="car" route="r11" depart="381.1"/>
  <vehicle id="veh156" type="car" route="r3" depart="384.6"/>
  <vehicle id="veh157" type="car" route="r4" depart="388.4"/>
  <vehicle id="veh158" type="car" route="r11" depart="390.3"/>
  <vehicle id="veh159" type="car" route="r2" depart="393.3"/>
  <vehicle id="veh160" type="scooter" route="r11" depart="393.5"/>
  <vehicle id="veh161" type="bus" route="r3" depart="393.7"/>
  <vehicle id="veh162" type="car" route="r1" depart="396.3"/>
  <vehicle id="veh163" type="car" route="r6" depart="398.9"/>
  <vehicle id="veh164" type="truck" route="r9" depart="399.6"/>
  <vehicle id="veh165" type="car" route="r1" depart="400.3"/>
  <vehicle id="veh166" type="car" route="r11" depart="400.8"/>
  <vehicle id="veh167" type="car" route="r11" depart="405.2"/>
  <vehicle id="veh168" type="scooter" route="r1" depart="410.2"/>
  <vehicle id="veh169" type="truck" route="r11" depart="412.5"/>
  <vehicle id="veh170" type="car" route="r9" depart="417.4"/>
  <vehicle id="veh171" type="scooter" route="r11" depart="420.5"/>
  <vehicle id="veh172" type="car" route="r6" depart="422.1"/>
  <vehicle id="veh173" type="car" route="r11" depart="424.0"/>
  <vehicle id="veh174" type="bus" route="r5" depart="426.9"/>
  <vehicle id="veh175" type="bus" route="r2" depart="431.0"/>
  <vehicle id="veh176" type="car" route="r7" depart="432.9"/>
  <vehicle id="veh177" type="bus" route="r5" depart="436.4"/>
  <vehicle id="veh178" type="car" route="r11" depart="439.1"/>
  <vehicle id="veh179" type="scooter" route="r4" depart="443.0"/>
  <vehicle id="veh180" type="truck" route="r5" depart="444.2"/>
  <vehicle id="veh181" type="car" route="r7" depart="446.2"/>
  <vehicle id="veh182" type="car" route="r10" depart="447.7"/>
  <vehicle id="veh183" type="car" route="r1" depart="448.6"/>
  <vehicle id="veh184" type="car" route="r11" depart="451.6"/>
  <vehicle id="veh185" type="bus" route="r7" depart="453.1"/>
  <vehicle id="veh186" type="bus" route="r5" depart="455.4"/>
  <vehicle id="veh187" type="car" route="r11" depart="458.9"/>
  <vehicle id="veh188" type="bus" route="r5" depart="460.5"/>
  <vehicle id="veh189" type="car" route="r7" depart="463.0"/>
  <vehicle id="veh190" type="car" route="r5" depart="465.9"/>
  <vehicle id="veh191" type="car" route="r6" depart="467.0"/>
  <vehicle id="veh192" type="car" route="r2" depart="470.8"/>
  <vehicle id="veh193" type="car" route="r11" depart="474.9"/>
  <vehicle id="veh194" type="car" route="r0" depart="478.6"/>
  <vehicle id="veh195" type="car" route="r0" depart="480.1"/>
  <vehicle id="veh196" type="truck" route="r0" depart="484.8"/>
  <vehicle id="veh197" type="scooter" route="r11" depart="488.2"/>
  <vehicle id="veh198" type="bus" route="r1" depart="489.7"/>
  <vehicle id="veh199" type="scooter" route="r2" depart="494.2"/>
  <vehicle id="veh200" type="scooter" route="r2" depart="495.9"/>
  <vehicle id="veh201" type="car" route="r11" depart="498.4"/>
  <vehicle id="veh202" type="scooter" route="r3" depart="498.7"/>
  <vehicle id="veh203" type="car" route="r8" depart="500.1"/>
  <vehicle id="veh204" type="scooter" route="r6" depart="502.6"/>
  <vehicle id="veh205" type="car" route="r2" depart="504.8"/>
  <vehicle id="veh206" type="car" route="r0" depart="507.2"/>
  <vehicle id="veh207" type="car" route="r11" depart="508.2"/>
  <vehicle id="veh208" type="scooter" route="r9" depart="512.5"/>
  <vehicle id="veh209" type="car" route="r11" depart="515.8"/>
  <vehicle id="veh210" type="bus" route="r4" depart="516.9"/>
  <vehicle id="veh211" type="scooter" route="r4" depart="518.6"/>
  <vehicle id="veh212" type="scooter" route="r10" depart="519.2"/>
  <vehicle id="veh213" type="car" route="r6" depart="519.9"/>
  <vehicle id="veh214" type="car" route="r11" depart="521.7"/>
  <vehicle id="veh215" type="car" route="r6" depart="521.8"/>
  <vehicle id="veh216" type="car" route="r1" depart="525.2"/>
  <vehicle id="veh217" type="car" route="r4" depart="530.0"/>
  <vehicle id="veh218" type="scooter" route="r1" depart="532.8"/>
  <vehicle id="veh219" type="truck" route="r4" depart="534.0"/>
  <vehicle id="veh220" type="car" route="r7" depart="537.6"/>
  <vehicle id="veh221" type="car" route="r11" depart="538.1"/>
  <vehicle id="veh222" type="truck" route="r8" depart="539.3"/>
  <vehicle id="veh223" type="car" route="r2" depart="542.5"/>
  <vehicle id="veh224" type="bus" route="r9" depart="543.4"/>
  <vehicle id="veh225" type="scooter" route="r2" depart="545.0"/>
  <vehicle id="veh226" type="bus" route="r6" depart="545.2"/>
  <vehicle id="veh227" type="truck" route="r9" depart="548.4"/>
  <vehicle id="veh228" type="scooter" route="r6" depart="550.7"/>
  <vehicle id="veh229" type="scooter" route="r11" depart="553.4"/>
  <vehicle id="veh230" type="truck" route="r4" depart="557.8"/>
  <vehicle id="veh231" type="scooter" route="r1" depart="562.4"/>
  <vehicle id="veh232" type="scooter" route="r8" depart="563.9"/>
  <vehicle id="veh233" type="scooter" route="r1" depart="566.3"/>
  <vehicle id="veh234" type="car" route="r8" depart="566.4"/>
  <vehicle id="veh235" type="car" route="r7" depart="568.4"/>
  <vehicle id="veh236" type="scooter" route="r1" depart="568.9"/>
  <vehicle id="veh237" type="bus" route="r5" depart="570.0"/>
  <vehicle id="veh238" type="car" route="r7" depart="570.3"/>
  <vehicle id="veh239" type="car" route="r2" depart="573.2"/>
  <vehicle id="veh240" type="scooter" route="r4" depart="574.1"/>
  <vehicle id="veh241" type="car" route="r1" depart="574.7"/>
  <vehicle id="veh242" type="scooter" route="r2" depart="578.4"/>
  <vehicle id="veh243" type="car" route="r10" depart="580.0"/>
  <vehicle id="veh244" type="car" route="r3" depart="583.0"/>
  <vehicle id="veh245" type="car" route="r2" depart="584.4"/>
  <vehicle id="veh246" type="bus" route="r1" depart="585.4"/>
  <vehicle id="veh247" type="truck" route="r7" depart="586.5"/>
  <vehicle id="veh248" type="car" route="r6" depart="588.3"/>
  <vehicle id="veh249" type="car" route="r11" depart="590.5"/>
  <vehicle id="veh250" type="car" route="r8" depart="593.0"/>
  <vehicle id="veh251" type="truck" route="r0" depart="596.4"/>
  <vehicle id="veh252" type="truck" route="r10" depart="599.8"/>
  <vehicle id="veh253" type="scooter" route="r9" depart="603.2"/>
  <vehicle id="veh254" type="scooter" route="r6" depart="605.7"/>
  <vehicle id="veh255" type="car" route="r6" depart="610.1"/>
  <vehicle id="veh256" type="bus" route="r0" depart="611.3"/>
  <vehicle id="veh257" type="car" route="r10" depart="615.0"/>
  <vehicle id="veh258" type="bus" route="r9" depart="617.8"/>
  <vehicle id="veh259" type="scooter" route="r0" depart="618.5"/>
  <vehicle id="veh260" type="scooter" route="r1" depart="619.5"/>
  <vehicle id="veh261" type="car" route="r3" depart="620.2"/>
  <vehicle id="veh262" type="bus" route="r5" depart="621.8"/>
  <vehicle id="veh263" type="car" route="r10" depart="624.7"/>
  <vehicle id="veh264" type="truck" route="r4" depart="629.0"/>
  <vehicle id="veh265" type="car" route="r9" depart="631.8"/>
  <vehicle id="veh266" type="car" route="r2" depart="634.2"/>
  <vehicle id="veh267" type="truck" route="r9" depart="637.2"/>
  <vehicle id="veh268" type="truck" route="r7" depart="637.3"/>
  <vehicle id="veh269" type="scooter" route="r4" depart="642.2"/>
  <vehicle id="veh270" type="scooter" route="r2" depart="646.3"/>
  <vehicle id="veh271" type="car" route="r11" depart="648.8"/>
  <vehicle id="veh272" type="bus" route="r7" depart="651.1"/>
  <vehicle id="veh273" type="car" route="r4" depart="653.2"/>
  <vehicle id="veh274" type="car" route="r1" depart="655.7"/>
  <vehicle id="veh275" type="car" route="r8" depart="660.2"/>
  <vehicle id="veh276" type="bus" route="r4" depart="663.8"/>
  <vehicle id="veh277" type="bus" route="r0" depart="666.4"/>
  <vehicle id="veh278" type="scooter" route="r11" depart="669.8"/>
  <vehicle id="veh279" type="car" route="r10" depart="672.3"/>
  <vehicle id="veh280" type="car" route="r7" depart="675.7"/>
  <vehicle id="veh281" type="scooter" route="r11" depart="679.8"/>
  <vehicle id="veh282" type="scooter" route="r7" depart="681.9"/>
  <vehicle id="veh283" type="car" route="r11" depart="682.4"/>
  <vehicle id="veh284" type="truck" route="r2" depart="686.6"/>
  <vehicle id="veh285" type="truck" route="r3" depart="687.4"/>
  <vehicle id="veh286" type="scooter" route="r9" depart="689.9"/>
  <vehicle id="veh287" type="car" route="r9" depart="693.1"/>
  <vehicle id="veh288" type="car" route="r6" depart="697.1"/>
  <vehicle id="veh289" type="car" route="r11" depart="700.9"/>
  <vehicle id="veh290" type="scooter" route="r11" depart="703.1"/>
  <vehicle id="veh291" type="car" route="r4" depart="707.7"/>
  <vehicle id="veh292" type="car" route="r6" depart="710.4"/>
  <vehicle id="veh293" type="car" route="r7" depart="713.2"/>
  <vehicle id="veh294" type="car" route="r9" depart="717.5"/>
  <vehicle id="veh295" type="car" route="r1" depart="722.2"/>
  <vehicle id="veh296" type="bus" route="r8" depart="726.9"/>
  <vehicle id="veh297" type="truck" route="r6" depart="727.9"/>
  <vehicle id="veh298" type="car" route="r11" depart="728.1"/>
  <vehicle id="veh299" type="car" route="r2" depart="729.7"/>
  <vehicle id="veh300" type="car" route="r8" depart="734.4"/>
  <vehicle id="veh301" type="scooter" route="r4" depart="739.1"/>
  <vehicle id="veh302" type="bus" route="r6" depart="739.1"/>
  <vehicle id="veh303" type="bus" route="r11" depart="742.5"/>
  <vehicle id="veh304" type="scooter" route="r10" depart="742.5"/>
  <vehicle id="veh305" type="bus" route="r9" depart="745.9"/>
  <vehicle id="veh306" type="car" route="r9" depart="746.0"/>
  <vehicle id="veh307" type="bus" route="r1" depart="747.9"/>
  <vehicle id="veh308" type="bus" route="r6" depart="748.6"/>
  <vehicle id="veh309" type="truck" route="r4" depart="750.6"/>
  <vehicle id="veh310" type="scooter" route="r11" depart="754.1"/>
  <vehicle id="veh311" type="car" route="r4" depart="756.9"/>
  <vehicle id="veh312" type="scooter" route="r4" depart="761.3"/>
  <vehicle id="veh313" type="car" route="r9" depart="762.5"/>
  <vehicle id="veh314" type="truck" route="r5" depart="764.1"/>
  <vehicle id="veh315" type="car" route="r5" depart="766.4"/>
  <vehicle id="veh316" type="bus" route="r5" depart="767.0"/>
  <vehicle id="veh317" type="truck" route="r3" depart="767.5"/>
  <vehicle id="veh318" type="car" route="r2" depart="768.7"/>
  <vehicle id="veh319" type="truck" route="r6" depart="772.4"/>
  <vehicle id="veh320" type="bus" route="r11" depart="773.8"/>
  <vehicle id="veh321" type="scooter" route="r9" depart="777.4"/>
  <vehicle id="veh322" type="car" route="r6" depart="778.3"/>
  <vehicle id="veh323" type="truck" route="r8" depart="781.2"/>
  <vehicle id="veh324" type="truck" route="r8" depart="783.9"/>
  <vehicle id="veh325" type="car" route="r11" depart="783.9"/>
  <vehicle id="veh326" type="car" route="r9" depart="788.4"/>
  <vehicle id="veh327" type="car" route="r11" depart="789.9"/>
  <vehicle id="veh328" type="car" route="r8" depart="792.4"/>
  <vehicle id="veh329" type="car" route="r11" depart="793.7"/>
  <vehicle id="veh330" type="car" route="r9" depart="796.4"/>
  <vehicle id="veh331" type="car" route="r3" depart="796.4"/>
  <vehicle id="veh332" type="car" route="r11" depart="800.6"/>
  <vehicle id="veh333" type="car" route="r5" depart="802.6"/>
  <vehicle id="veh334" type="car" route="r2" depart="805.1"/>
  <vehicle id="veh335" type="car" route="r6" depart="805.1"/>
  <vehicle id="veh336" type="car" route="r3" depart="807.2"/>
  <vehicle id="veh337" type="car" route="r8" depart="811.9"/>
  <vehicle id="veh338" type="bus" route="r2" depart="813.5"/>
  <vehicle id="veh339" type="car" route="r3" depart="814.1"/>
  <vehicle id="veh340" type="car" route="r11" depart="819.0"/>
  <vehicle id="veh341" type="scooter" route="r3" depart="821.1"/>
  <vehicle id="veh342" type="car" route="r1" depart="824.3"/>
  <vehicle id="veh343" type="truck" route="r9" depart="827.5"/>
  <vehicle id="veh344" type="truck" route="r11" depart="828.1"/>
  <vehicle id="veh345" type="truck" route="r11" depart="830.6"/>
  <vehicle id="veh346" type="scooter" route="r11" depart="834.7"/>
  <vehicle id="veh347" type="scooter" route="r2" depart="835.1"/>
  <vehicle id="veh348" type="scooter" route="r11" depart="836.0"/>
  <vehicle id="veh349" type="bus" route="r5" depart="839.0"/>
  <vehicle id="veh350" type="car" route="r5" depart="842.9"/>
  <vehicle id="veh351" type="bus" route="r3" depart="845.3"/>
  <vehicle id="veh352" type="scooter" route="r5" depart="846.9"/>
  <vehicle id="veh353" type="bus" route="r4" depart="850.1"/>
  <vehicle id="veh354" type="scooter" route="r3" depart="855.0"/>
  <vehicle id="veh355" type="bus" route="r9" depart="858.5"/>
  <vehicle id="veh356" type="car" route="r4" depart="858.9"/>
  <vehicle id="veh357" type="scooter" route="r4" depart="862.3"/>
  <vehicle id="veh358" type="bus" route="r8" depart="862.4"/>
  <vehicle id="veh359" type="bus" route="r9" depart="865.3"/>
  <vehicle id="veh360" type="scooter" route="r6" depart="867.2"/>
  <vehicle id="veh361" type="car" route="r2" depart="872.0"/>
  <vehicle id="veh362" type="car" route="r4" depart="872.9"/>
  <vehicle id="veh363" type="scooter" route="r11" depart="877.4"/>
  <vehicle id="veh364" type="bus" route="r11" depart="878.1"/>
  <vehicle id="veh365" type="car" route="r11" depart="882.1"/>
  <vehicle id="veh366" type="bus" route="r10" depart="882.1"/>
  <vehicle id="veh367" type="car" route="r0" depart="884.4"/>
  <vehicle id="veh368" type="truck" route="r4" depart="885.9"/>
  <vehicle id="veh369" type="car" route="r10" depart="890.7"/>
  <vehicle id="veh370" type="bus" route="r0" depart="895.6"/>
  <vehicle id="veh371" type="scooter" route="r9" depart="897.7"/>
  <vehicle id="veh372" type="scooter" route="r6" depart="900.8"/>
  <vehicle id="veh373" type="car" route="r0" depart="902.4"/>
  <vehicle id="veh374" type="car" route="r9" depart="905.8"/>
  <vehicle id="veh375" type="scooter" route="r8" depart="909.5"/>
  <vehicle id="veh376" type="car" route="r9" depart="910.5"/>
  <vehicle id="veh377" type="car" route="r7" depart="914.5"/>
  <vehicle id="veh378" type="bus" route="r7" depart="914.7"/>
  <vehicle id="veh379" type="car" route="r11" depart="918.5"/>
  <vehicle id="veh380" type="bus" route="r5" depart="921.0"/>
  <vehicle id="veh381" type="scooter" route="r0" depart="922.3"/>
  <vehicle id="veh382" type="bus" route="r10" depart="927.0"/>
  <vehicle id="veh383" type="car" route="r6" depart="929.5"/>
  <vehicle id="veh384" type="scooter" route="r2" depart="930.0"/>
  <vehicle id="veh385" type="bus" route="r1" depart="933.5"/>
  <vehicle id="veh386" type="bus" route="r5" depart="935.6"/>
  <vehicle id="veh387" type="scooter" route="r11" depart="940.2"/>
  <vehicle id="veh388" type="bus" route="r9" depart="944.4"/>
  <vehicle id="veh389" type="scooter" route="r4" depart="946.8"/>
  <vehicle id="veh390" type="scooter" route="r8" depart="950.9"/>
  <vehicle id="veh391" type="bus" route="r2" depart="955.4"/>
  <vehicle id="veh392" type="car" route="r1" depart="955.5"/>
  <vehicle id="veh393" type="scooter" route="r3" depart="959.1"/>
  <vehicle id="veh394" type="bus" route="r11" depart="960.6"/>
  <vehicle id="veh395" type="car" route="r11" depart="962.8"/>
  <vehicle id="veh396" type="truck" route="r6" depart="967.4"/>
  <vehicle id="veh397" type="car" route="r0" depart="968.4"/>
  <vehicle id="veh398" type="scooter" route="r5" depart="970.3"/>
  <vehicle id="veh399" type="scooter" route="r5" depart="973.3"/>
  <vehicle id="veh400" type="car" route="r6" depart="977.3"/>
  <vehicle id="veh401" type="car" route="r8" depart="977.3"/>
  <vehicle id="veh402" type="scooter" route="r3" depart="980.8"/>
  <vehicle id="veh403" type="truck" route="r11" depart="982.0"/>
  <vehicle id="veh404" type="car" route="r5" depart="984.5"/>
  <vehicle id="veh405" type="scooter" route="r11" depart="985.8"/>
  <vehicle id="veh406" type="scooter" route="r3" depart="987.2"/>
  <vehicle id="veh407" type="scooter" route="r8" depart="990.6"/>
  <vehicle id="veh408" type="car" route="r11" depart="991.1"/>
  <vehicle id="veh409" type="car" route="r1" depart="995.3"/>
  <vehicle id="veh410" type="car" route="r1" depart="996.3"/>
  <vehicle id="veh411" type="car" route="r5" depart="1000.6"/>
  <vehicle id="veh412" type="bus" route="r6" depart="1003.8"/>
  <vehicle id="veh413" type="car" route="r9" depart="1004.7"/>
  <vehicle id="veh414" type="truck" route="r9" depart="1005.2"/>
  <vehicle id="veh415" type="truck" route="r11" depart="1007.6"/>
  <vehicle id="veh416" type="car" route="r3" depart="1011.2"/>
  <vehicle id="veh417" type="scooter" route="r6" depart="1011.7"/>
  <vehicle id="veh418" type="car" route="r6" depart="1013.5"/>
  <vehicle id="veh419" type="truck" route="r0" depart="1016.2"/>
  <vehicle id="veh420" type="car" route="r3" depart="1020.8"/>
  <vehicle id="veh421" type="bus" route="r11" depart="1022.1"/>
  <vehicle id="veh422" type="bus" route="r5" depart="1025.9"/>
  <vehicle id="veh423" type="car" route="r7" depart="1029.7"/>
  <vehicle id="veh424" type="car" route="r10" depart="1033.5"/>
  <vehicle id="veh425" type="scooter" route="r10" depart="1035.9"/>
  <vehicle id="veh426" type="car" route="r1" depart="1037.7"/>
  <vehicle id="veh427" type="bus" route="r11" depart="1040.3"/>
  <vehicle id="veh428" type="scooter" route="r6" depart="1041.1"/>
  <vehicle id="veh429" type="car" route="r11" depart="1044.0"/>
  <vehicle id="veh430" type="scooter" route="r3" depart="1045.9"/>
  <vehicle id="veh431" type="bus" route="r11" depart="1047.4"/>
  <vehicle id="veh432" type="car" route="r6" depart="1051.3"/>
  <vehicle id="veh433" type="car" route="r8" depart="1053.7"/>
  <vehicle id="veh434" type="car" route="r9" depart="1053.9"/>
  <vehicle id="veh435" type="car" route="r9" depart="1057.7"/>
  <vehicle id="veh436" type="car" route="r4" depart="1059.1"/>
  <vehicle id="veh437" type="bus" route="r6" depart="1062.6"/>
  <vehicle id="veh438" type="car" route="r5" depart="1065.0"/>
  <vehicle id="veh439" type="car" route="r9" depart="1069.9"/>
  <vehicle id="veh440" type="bus" route="r0" depart="1074.1"/>
  <vehicle id="veh441" type="car" route="r6" depart="1078.5"/>
  <vehicle id="veh442" type="car" route="r10" depart="1080.2"/>
  <vehicle id="veh443" type="scooter" route="r9" depart="1084.0"/>
  <vehicle id="veh444" type="car" route="r10" depart="1087.3"/>
  <vehicle id="veh445" type="bus" route="r9" depart="1089.8"/>
  <vehicle id="veh446" type="car" route="r11" depart="1090.0"/>
  <vehicle id="veh447" type="scooter" route="r6" depart="1094.5"/>
  <vehicle id="veh448" type="truck" route="r1" depart="1094.9"/>
  <vehicle id="veh449" type="car" route="r4" depart="1098.6"/>
  <vehicle id="veh450" type="bus" route="r1" depart="1100.9"/>
  <vehicle id="veh451" type="car" route="r8" depart="1105.1"/>
  <vehicle id="veh452" type="car" route="r7" depart="1106.0"/>
  <vehicle id="veh453" type="bus" route="r7" depart="1108.9"/>
  <vehicle id="veh454" type="car" route="r11" depart="1109.1"/>
  <vehicle id="veh455" type="car" route="r4" depart="1110.9"/>
  <vehicle id="veh456" type="car" route="r0" depart="1114.7"/>
  <vehicle id="veh457" type="scooter" route="r11" depart="1118.2"/>
  <vehicle id="veh458" type="car" route="r10" depart="1121.2"/>
  <vehicle id="veh459" type="car" route="r7" depart="1124.2"/>
  <vehicle id="veh460" type="car" route="r9" depart="1129.1"/>
  <vehicle id="veh461" type="scooter" route="r5" depart="1130.6"/>