<routes>
  <vType id="car" accel="1.0" decel="4.5" maxSpeed="25" length="5"/>
  <vType id="truck" accel="0.5" decel="3.0" maxSpeed="18" length="12"/>
  <vType id="bus" accel="0.8" decel="3.5" maxSpeed="20" length="10"/>
  <vType id="scooter" accel="1.5" decel="4.0" maxSpeed="30" length="2"/>
  <route id="r0" edges="-north east"/>
  <route id="r1" edges="-north south"/>
  <route id="r2" edges="-north west"/>
  <route id="r3" edges="-east north"/>
  <route id="r4" edges="-east south"/>
  <route id="r5" edges="-east west"/>
  <route id="r6" edges="-south north"/>
  <route id="r7" edges="-south east"/>
  <route id="r8" edges="-south west"/>
  <route id="r9" edges="-west north"/>
  <route id="r10" edges="-west east"/>
  <route id="r11" edges="-west south"/>
  <vehicle id="veh0" type="car" route="r7" depart="0.0"/>
  <vehicle id="veh1" type="scooter" route="r0" depart="2.0"/>
  <vehicle id="veh2" type="car" route="r9" depart="2.4"/>
  <vehicle id="veh3" type="scooter" route="r9" depart="5.4"/>
  <vehicle id="veh4" type="car" route="r8" depart="6.8"/>
  <vehicle id="veh5" type="car" route="r2" depart="8.3"/>
  <vehicle id="veh6" type="scooter" route="r3" depart="9.0"/>
  <vehicle id="veh7" type="truck" route="r7" depart="10.6"/>
  <vehicle id="veh8" type="car" route="r2" depart="11.0"/>
  <vehicle id="veh9" type="bus" route="r10" depart="15.5"/>
  <vehicle id="veh10" type="car" route="r1" depart="20.0"/>
  <vehicle id="veh11" type="truck" route="r1" depart="20.8"/>
  <vehicle id="veh12" type="car" route="r5" depart="23.4"/>
  <vehicle id="veh13" type="car" route="r5" depart="25.6"/>
  <vehicle id="veh14" type="car" route="r9" depart="28.6"/>
  <vehicle id="veh15" type="car" route="r1" depart="31.7"/>
  <vehicle id="veh16" type="bus" route="r1" depart="35.3"/>
  <vehicle id="veh17" type="car" route="r5" depart="36.2"/>
  <vehicle id="veh18" type="car" route="r11" depart="37.3"/>
  <vehicle id="veh19" type="scooter" route="r11" depart="37.4"/>
  <vehicle id="veh20" type="car" route="r5" depart="41.1"/>
  <vehicle id="veh21" type="car" route="r8" depart="43.4"/>
  <vehicle id="veh22" type="car" route="r9" depart="45.8"/>
  <vehicle id="veh23" type="scooter" route="r5" depart="46.2"/>
  <vehicle id="veh24" type="truck" route="r3" depart="47.8"/>
  <vehicle id="veh25" type="bus" route="r3" depart="50.4"/>
  <vehicle id="veh26" type="truck" route="r5" depart="51.2"/>
  <vehicle id="veh27" type="scooter" route="r11" depart="54.6"/>
  <vehicle id="veh28" type="car" route="r8" depart="56.0"/>
  <vehicle id="veh29" type="car" route="r7" depart="57.2"/>
  <vehicle id="veh30" type="scooter" route="r9" depart="59.4"/>
  <vehicle id="veh31" type="bus" route="r5" depart="60.4"/>
  <vehicle id="veh32" type="scooter" route="r8" depart="62.9"/>
  <vehicle id="veh33" type="car" route="r2" depart="66.1"/>
  <vehicle id="veh34" type="car" route="r10" depart="70.3"/>
  <vehicle id="veh35" type="bus" route="r8" depart="72.1"/>
  <vehicle id="veh36" type="scooter" route="r3" depart="72.4"/>
  <vehicle id="veh37" type="scooter" route="r7" depart="73.6"/>
  <vehicle id="veh38" type="truck" route="r8" depart="74.8"/>
  <vehicle id="veh39" type="car" route="r1" depart="78.6"/>
  <vehicle id="veh40" type="car" route="r5" depart="79.8"/>
  <vehicle id="veh41" type="scooter" route="r5" depart="82.7"/>
  <vehicle id="veh42" type="car" route="r3" depart="85.7"/>
  <vehicle id="veh43" type="car" route="r8" depart="87.0"/>
  <vehicle id="veh44" type="truck" route="r8" depart="87.5"/>
  <vehicle id="veh45" type="truck" route="r8" depart="90.6"/>
  <vehicle id="veh46" type="car" route="r3" depart="92.6"/>
  <vehicle id="veh47" type="car" route="r7" depart="96.1"/>
  <vehicle id="veh48" type="car" route="r6" depart="98.3"/>
  <vehicle id="veh49" type="scooter" route="r3" depart="100.7"/>
  <vehicle id="veh50" type="bus" route="r8" depart="102.8"/>
  <vehicle id="veh51" type="scooter" route="r10" depart="105.3"/>
  <vehicle id="veh52" type="car" route="r3" depart="105.6"/>
  <vehicle id="veh53" type="truck" route="r6" depart="106.5"/>
  <vehicle id="veh54" type="car" route="r2" depart="110.9"/>
  <vehicle id="veh55" type="car" route="r7" depart="114.2"/>
  <vehicle id="veh56" type="car" route="r1" depart="114.3"/>
  <vehicle id="veh57" type="car" route="r10" depart="117.8"/>
  <vehicle id="veh58" type="car" route="r10" depart="117.8"/>
  <vehicle id="veh59" type="truck" route="r2" depart="119.6"/>
  <vehicle id="veh60" type="truck" route="r10" depart="122.8"/>
  <vehicle id="veh61" type="scooter" route="r5" depart="127.0"/>
  <vehicle id="veh62" type="car" route="r8" depart="127.3"/>
  <vehicle id="veh63" type="car" route="r3" depart="130.9"/>
  <vehicle id="veh64" type="bus" route="r7" depart="134.2"/>
  <vehicle id="veh65" type="bus" route="r5" depart="137.7"/>
  <vehicle id="veh66" type="car" route="r3" depart="138.0"/>
  <vehicle id="veh67" type="bus" route="r10" depart="142.1"/>
  <vehicle id="veh68" type="truck" route="r0" depart="142.8"/>
  <vehicle id="veh69" type="car" route="r11" depart="145.3"/>
  <vehicle id="veh70" type="car" route="r6" depart="150.1"/>
  <vehicle id="veh71" type="bus" route="r7" depart="150.4"/>
  <vehicle id="veh72" type="scooter" route="r10" depart="152.9"/>
  <vehicle id="veh73" type="bus" route="r0" depart="156.7"/>
  <vehicle id="veh74" type="bus" route="r1" depart="158.0"/>
  <vehicle id="veh75" type="car" route="r10" depart="158.4"/>
  <vehicle id="veh76" type="car" route="r0" depart="159.0"/>
  <vehicle id="veh77" type="car" route="r5" depart="162.6"/>
  <vehicle id="veh78" type="bus" route="r7" depart="165.1"/>
  <vehicle id="veh79" type="scooter" route="r9" depart="169.8"/>
  <vehicle id="veh80" type="bus" route="r5" depart="172.8"/>
  <vehicle id="veh81" type="car" route="r2" depart="176.4"/>
  <vehicle id="veh82" type="car" route="r7" depart="178.8"/>
  <vehicle id="veh83" type="car" route="r0" depart="181.9"/>
  <vehicle id="veh84" type="car" route="r7" depart="182.5"/>
  <vehicle id="veh85" type="truck" route="r7" depart="186.8"/>
  <vehicle id="veh86" type="car" route="r6" depart="190.9"/>
  <vehicle id="veh87" type="truck" route="r8" depart="195.7"/>
  <vehicle id="veh88" type="truck" route="r7" depart="197.1"/>
  <vehicle id="veh89" type="car" route="r0" depart="200.1"/>
  <vehicle id="veh90" type="car" route="r6" depart="201.2"/>
  <vehicle id="veh91" type="car" route="r4" depart="202.0"/>
  <vehicle id="veh92" type="car" route="r3" depart="202.1"/>
  <vehicle id="veh93" type="car" route="r10" depart="202.5"/>
  <vehicle id="veh94" type="scooter" route="r4" depart="207.2"/>
  <vehicle id="veh95" type="scooter" route="r7" depart="212.1"/>
  <vehicle id="veh96" type="truck" route="r1" depart="215.8"/>
  <vehicle id="veh97" type="truck" route="r0" depart="219.7"/>
  <vehicle id="veh98" type="truck" route="r2" depart="223.6"/>
  <vehicle id="veh99" type="car" route="r10" depart="225.9"/>
  <vehicle id="veh100" type="scooter" route="r11" depart="229.6"/>
  <vehicle id="veh101" type="car" route="r8" depart="232.5"/>
  <vehicle id="veh102" type="truck" route="r6" depart="235.8"/>
  <vehicle id="veh103" type="scooter" route="r2" depart="236.0"/>
  <vehicle id="veh104" type="scooter" route="r9" depart="239.1"/>
  <vehicle id="veh105" type="bus" route="r5" depart="242.0"/>
  <vehicle id="veh106" type="car" route="r0" depart="245.1"/>
  <vehicle id="veh107" type="car" route="r3" depart="245.6"/>
  <vehicle id="veh108" type="truck" route="r2" depart="249.2"/>
  <vehicle id="veh109" type="car" route="r0" depart="250.3"/>
  <vehicle id="veh110" type="bus" route="r5" depart="254.5"/>
  <vehicle id="veh111" type="scooter" route="r2" depart="258.9"/>
  <vehicle id="veh112" type="car" route="r10" depart="260.8"/>
  <vehicle id="veh113" type="truck" route="r10" depart="263.9"/>
  <vehicle id="veh114" type="bus" route="r8" depart="264.7"/>
  <vehicle id="veh115" type="car" route="r6" depart="267.6"/>
  <vehicle id="veh116" type="bus" route="r0" depart="272.0"/>
  <vehicle id="veh117" type="car" route="r8" depart="274.6"/>
  <vehicle id="veh118" type="car" route="r11" depart="276.9"/>
  <vehicle id="veh119" type="car" route="r0" depart="278.0"/>
  <vehicle id="veh120" type="car" route="r6" depart="282.8"/>
  <vehicle id="veh121" type="car" route="r4" depart="285.4"/>
  <vehicle id="veh122" type="car" route="r6" depart="287.6"/>
  <vehicle id="veh123" type="car" route="r1" depart="290.8"/>
  <vehicle id="veh124" type="bus" route="r5" depart="292.4"/>
  <vehicle id="veh125" type="car" route="r3" depart="294.0"/>
  <vehicle id="veh126" type="car" route="r10" depart="295.4"/>
  <vehicle id="veh127" type="car" route="r4" depart="299.0"/>
  <vehicle id="veh128" type="car" route="r7" depart="301.9"/>
  <vehicle id="veh129" type="bus" route="r0" depart="304.1"/>
  <vehicle id="veh130" type="bus" route="r8" depart="309.0"/>
  <vehicle id="veh131" type="car" route="r5" depart="310.8"/>
  <vehicle id="veh132" type="car" route="r1" depart="315.4"/>
  <vehicle id="veh133" type="bus" route="r3" depart="319.0"/>
  <vehicle id="veh134" type="car" route="r6" depart="319.3"/>
  <vehicle id="veh135" type="car" route="r7" depart="321.1"/>
  <vehicle id="veh136" type="bus" route="r8" depart="325.4"/>
  <vehicle id="veh137" type="bus" route="r5" depart="329.8"/>
  <vehicle id="veh138" type="bus" route="r3" depart="331.1"/>
  <vehicle id="veh139" type="bus" route="r7" depart="331.5"/>
  <vehicle id="veh140" type="truck" route="r11" depart="332.3"/>
  <vehicle id="veh141" type="bus" route="r7" depart="334.5"/>
  <vehicle id="veh142" type="truck" route="r3" depart="336.5"/>
  <vehicle id="veh143" type="bus" route="r7" depart="338.0"/>
  <vehicle id="veh144" type="car" route="r2" depart="340.8"/>
  <vehicle id="veh145" type="car" route="r9" depart="342.8"/>
  <vehicle id="veh146" type="bus" route="r2" depart="345.0"/>
  <vehicle id="veh147" type="car" route="r10" depart="346.4"/>
  <vehicle id="veh148" type="truck" route="r3" depart="350.1"/>
  <vehicle id="veh149" type="truck" route="r0" depart="351.7"/>
  <vehicle id="veh150" type="car" route="r8" depart="352.0"/>
  <vehicle id="veh151" type="truck" route="r0" depart="355.8"/>
  <vehicle id="veh152" type="car" route="r10" depart="360.4"/>
  <vehicle id="veh153" type="car" route="r6" depart="363.4"/>
  <vehicle id="veh154" type="scooter" route="r10" depart="364.3"/>
  <vehicle id="veh155" type="car" route="r7" depart="367.3"/>
  <vehicle id="veh156" type="scooter" route="r10" depart="368.6"/>
  <vehicle id="veh157" type="bus" route="r8" depart="369.9"/>
  <vehicle id="veh158" type="scooter" route="r6" depart="371.4"/>
  <vehicle id="veh159" type="bus" route="r10" depart="374.7"/>
  <vehicle id="veh160" type="car" route="r9" depart="379.6"/>
  <vehicle id="veh161" type="car" route="r5" depart="383.4"/>
  <vehicle id="veh162" type="bus" route="r5" depart="385.9"/>
  <vehicle id="veh163" type="car" route="r8" depart="389.7"/>
  <vehicle id="veh164" type="scooter" route="r7" depart="389.8"/>
  <vehicle id="veh165" type="car" route="r5" depart="393.3"/>
  <vehicle id="veh166" type="car" route="r11" depart="396.4"/>
  <vehicle id="veh167" type="car" route="r9" depart="396.5"/>
  <vehicle id="veh168" type="car" route="r2" depart="400.8"/>
  <vehicle id="veh169" type="bus" route="r11" depart="405.0"/>
  <vehicle id="veh170" type="car" route="r9" depart="408.1"/>
  <vehicle id="veh171" type="bus" route="r0" depart="410.0"/>
  <vehicle id="veh172" type="scooter" route="r4" depart="412.3"/>
  <vehicle id="veh173" type="car" route="r7" depart="412.8"/>
  <vehicle id="veh174" type="bus" route="r9" depart="417.5"/>
  <vehicle id="veh175" type="car" route="r6" depart="418.0"/>
  <vehicle id="veh176" type="car" route="r1" depart="420.1"/>
  <vehicle id="veh177" type="car" route="r9" depart="420.3"/>
  <vehicle id="veh178" type="scooter" route="r0" depart="422.8"/>
  <vehicle id="veh179" type="car" route="r8" depart="424.9"/>
  <vehicle id="veh180" type="bus" route="r4" depart="428.2"/>
  <vehicle id="veh181" type="truck" route="r11" depart="431.4"/>
  <vehicle id="veh182" type="scooter" route="r4" depart="436.0"/>
  <vehicle id="veh183" type="car" route="r4" depart="440.1"/>
  <vehicle id="veh184" type="scooter" route="r0" depart="443.8"/>
  <vehicle id="veh185" type="car" route="r1" depart="446.8"/>
  <vehicle id="veh186" type="car" route="r9" depart="449.4"/>
  <vehicle id="veh187" type="scooter" route="r4" depart="454.2"/>
  <vehicle id="veh188" type="truck" route="r7" depart="454.4"/>
  <vehicle id="veh189" type="car" route="r6" depart="457.3"/>
  <vehicle id="veh190" type="car" route="r2" depart="460.0"/>
  <vehicle id="veh191" type="car" route="r8" depart="463.0"/>
  <vehicle id="veh192" type="scooter" route="r5" depart="464.6"/>
  <vehicle id="veh193" type="scooter" route="r5" depart="465.2"/>
  <vehicle id="veh194" type="bus" route="r3" depart="469.7"/>
  <vehicle id="veh195" type="car" route="r9" depart="473.3"/>
  <vehicle id="veh196" type="car" route="r1" depart="473.4"/>
  <vehicle id="veh197" type="car" route="r6" depart="474.3"/>
  <vehicle id="veh198" type="scooter" route="r6" depart="475.8"/>
  <vehicle id="veh199" type="scooter" route="r8" depart="480.2"/>
  <vehicle id="veh200" type="car" route="r6" depart="482.7"/>
  <vehicle id="veh201" type="car" route="r0" depart="486.6"/>
  <vehicle id="veh202" type="car" route="r3" depart="488.2"/>
  <vehicle id="veh203" type="scooter" route="r0" depart="488.2"/>
  <vehicle id="veh204" type="car" route="r6" depart="492.6"/>
  <vehicle id="veh205" type="car" route="r10" depart="497.3"/>
  <vehicle id="veh206" type="truck" route="r8" depart="502.2"/>
  <vehicle id="veh207" type="car" route="r9" depart="504.1"/>
  <vehicle id="veh208" type="scooter" route="r9" depart="506.0"/>
  <vehicle id="veh209" type="car" route="r8" depart="506.1"/>
  <vehicle id="veh210" type="bus" route="r11" depart="510.8"/>
  <vehicle id="veh211" type="car" route="r8" depart="513.6"/>
  <vehicle id="veh212" type="car" route="r7" depart="517.6"/>
  <vehicle id="veh213" type="bus" route="r3" depart="519.7"/>
  <vehicle id="veh214" type="scooter" route="r9" depart="521.3"/>
  <vehicle id="veh215" type="car" route="r0" depart="522.9"/>
  <vehicle id="veh216" type="scooter" route="r0" depart="526.9"/>
  <vehicle id="veh217" type="scooter" route="r2" depart="531.0"/>
  <vehicle id="veh218" type="scooter" route="r3" depart="535.9"/>
  <vehicle id="veh219" type="car" route="r10" depart="540.0"/>
  <vehicle id="veh220" type="bus" route="r10" depart="543.3"/>
  <vehicle id="veh221" type="scooter" route="r7" depart="546.3"/>
  <vehicle id="veh222" type="scooter" route="r10" depart="547.5"/>
  <vehicle id="veh223" type="scooter" route="r2" depart="551.8"/>
  <vehicle id="veh224" type="scooter" route="r8" depart="553.0"/>
  <vehicle id="veh225" type="scooter" route="r0" depart="555.5"/>
  <vehicle id="veh226" type="bus" route="r7" depart="559.0"/>
  <vehicle id="veh227" type="car" route="r4" depart="561.9"/>
  <vehicle id="veh228" type="scooter" route="r5" depart="565.0"/>
  <vehicle id="veh229" type="car" route="r11" depart="568.1"/>
  <vehicle id="veh230" type="car" route="r11" depart="569.2"/>
  <vehicle id="veh231" type="car" route="r7" depart="570.1"/>
  <vehicle id="veh232" type="car" route="r9" depart="574.8"/>
  <vehicle id="veh233" type="car" route="r10" depart="578.5"/>
  <vehicle id="veh234" type="scooter" route="r2" depart="578.8"/>
  <vehicle id="veh235" type="bus" route="r1" depart="579.8"/>
  <vehicle id="veh236" type="car" route="r8" depart="582.9"/>
  <vehicle id="veh237" type="truck" route="r11" depart="584.2"/>
  <vehicle id="veh238" type="bus" route="r3" depart="585.0"/>
  <vehicle id="veh239" type="car" route="r10" depart="589.6"/>
  <vehicle id="veh240" type="car" route="r9" depart="593.7"/>
  <vehicle id="veh241" type="bus" route="r5" depart="595.7"/>
  <vehicle id="veh242" type="scooter" route="r1" depart="595.8"/>
  <vehicle id="veh243" type="scooter" route="r10" depart="598.7"/>
  <vehicle id="veh244" type="car" route="r6" depart="603.6"/>
  <vehicle id="veh245" type="car" route="r4" depart="606.1"/>
  <vehicle id="veh246" type="car" route="r4" depart="607.9"/>
  <vehicle id="veh247" type="car" route="r4" depart="608.3"/>
  <vehicle id="veh248" type="bus" route="r4" depart="610.3"/>
  <vehicle id="veh249" type="bus" route="r4" depart="611.6"/>
  <vehicle id="veh250" type="car" route="r1" depart="615.4"/>
  <vehicle id="veh251" type="bus" route="r6" depart="616.4"/>
  <vehicle id="veh252" type="car" route="r4" depart="617.9"/>
  <vehicle id="veh253" type="scooter" route="r9" depart="622.0"/>
  <vehicle id="veh254" type="car" route="r6" depart="623.1"/>
  <vehicle id="veh255" type="car" route="r1" depart="624.5"/>
  <vehicle id="veh256" type="car" route="r10" depart="626.5"/>
  <vehicle id="veh257" type="car" route="r5" depart="629.3"/>
  <vehicle id="veh258" type="scooter" route="r10" depart="632.2"/>
  <vehicle id="veh259" type="car" route="r10" depart="633.3"/>
  <vehicle id="veh260" type="car" route="r6" depart="637.6"/>
  <vehicle id="veh261" type="bus" route="r0" depart="640.3"/>
  <vehicle id="veh262" type="car" route="r7" depart="643.6"/>
  <vehicle id="veh263" type="scooter" route="r5" depart="648.6"/>
  <vehicle id="veh264" type="car" route="r3" depart="652.5"/>
  <vehicle id="veh265" type="car" route="r8" depart="656.3"/>
  <vehicle id="veh266" type="scooter" route="r4" depart="658.4"/>
  <vehicle id="veh267" type="truck" route="r4" depart="660.4"/>
  <vehicle id="veh268" type="car" route="r0" depart="664.4"/>
  <vehicle id="veh269" type="scooter" route="r4" depart="667.9"/>
  <vehicle id="veh270" type="car" route="r7" depart="669.0"/>
  <vehicle id="veh271" type="car" route="r6" depart="671.9"/>
  <vehicle id="veh272" type="car" route="r11" depart="671.9"/>
  <vehicle id="veh273" type="truck" route="r6" depart="672.7"/>
  <vehicle id="veh274" type="car" route="r5" depart="674.1"/>
  <vehicle id="veh275" type="car" route="r2" depart="678.5"/>
  <vehicle id="veh276" type="car" route="r6" depart="681.8"/>
  <vehicle id="veh277" type="bus" route="r5" depart="685.6"/>
  <vehicle id="veh278" type="truck" route="r7" depart="689.9"/>
  <vehicle id="veh279" type="car" route="r4" depart="691.8"/>
  <vehicle id="veh280" type="scooter" route="r7" depart="694.2"/>
  <vehicle id="veh281" type="car" route="r7" depart="694.9"/>
  <vehicle id="veh282" type="bus" route="r2" depart="695.8"/>
  <vehicle id="veh283" type="bus" route="r5" depart="698.0"/>
  <vehicle id="veh284" type="bus" route="r0" depart="701.3"/>
  <vehicle id="veh285" type="car" route="r5" depart="702.1"/>
  <vehicle id="veh286" type="car" route="r1" depart="704.4"/>
  <vehicle id="veh287" type="car" route="r11" depart="708.5"/>
  <vehicle id="veh288" type="car" route="r4" depart="710.5"/>
  <vehicle id="veh289" type="car" route="r4" depart="711.6"/>
  <vehicle id="veh290" type="car" route="r4" depart="711.6"/>
  <vehicle id="veh291" type="car" route="r2" depart="716.2"/>
  <vehicle id="veh292" type="scooter" route="r8" depart="720.3"/>
  <vehicle id="veh293" type="bus" route="r0" depart="724.7"/>
  <vehicle id="veh294" type="scooter" route="r9" depart="726.0"/>
  <vehicle id="veh295" type="scooter" route="r1" depart="728.6"/>
  <vehicle id="veh296" type="car" route="r6" depart="730.3"/>
  <vehicle id="veh297" type="scooter" route="r1" depart="733.9"/>
  <vehicle id="veh298" type="car" route="r7" depart="735.3"/>
  <vehicle id="veh299" type="truck" route="r1" depart="738.2"/>
  <vehicle id="veh300" type="bus" route="r11" depart="739.3"/>
  <vehicle id="veh301" type="truck" route="r2" depart="743.4"/>
  <vehicle id="veh302" type="scooter" route="r9" depart="745.2"/>
  <vehicle id="veh303" type="car" route="r4" depart="747.0"/>
  <vehicle id="veh304" type="bus" route="r7" depart="750.4"/>
  <vehicle id="veh305" type="car" route="r9" depart="750.9"/>
  <vehicle id="veh306" type="scooter" route="r9" depart="751.5"/>
  <vehicle id="veh307" type="car" route="r6" depart="753.3"/>
  <vehicle id="veh308" type="scooter" route="r9" depart="757.2"/>
  <vehicle id="veh309" type="bus" route="r6" depart="757.8"/>
  <vehicle id="veh310" type="car" route="r2" depart="760.8"/>
  <vehicle id="veh311" type="car" route="r10" depart="762.8"/>
  <vehicle id="veh312" type="bus" route="r3" depart="765.4"/>
  <vehicle id="veh313" type="scooter" route="r11" depart="769.8"/>
  <vehicle id="veh314" type="car" route="r9" depart="771.0"/>
  <vehicle id="veh315" type="car" route="r5" depart="775.6"/>
  <vehicle id="veh316" type="bus" route="r0" depart="775.6"/>
  <vehicle id="veh317" type="scooter" route="r9" depart="777.0"/>
  <vehicle id="veh318" type="car" route="r8" depart="777.0"/>
  <vehicle id="veh319" type="scooter" route="r11" depart="777.1"/>
  <vehicle id="veh320" type="bus" route="r9" depart="777.4"/>
  <vehicle id="veh321" type="bus" route="r1" depart="779.8"/>
  <vehicle id="veh322" type="car" route="r7" depart="782.5"/>
  <vehicle id="veh323" type="bus" route="r8" depart="787.2"/>
  <vehicle id="veh324" type="car" route="r2" depart="790.1"/>
  <vehicle id="veh325" type="car" route="r9" depart="793.4"/>
  <vehicle id="veh326" type="car" route="r0" depart="794.7"/>
  <vehicle id="veh327" type="bus" route="r8" depart="796.0"/>
  <vehicle id="veh328" type="car" route="r1" depart="798.2"/>
  <vehicle id="veh329" type="truck" route="r11" depart="802.4"/>
  <vehicle id="veh330" type="car" route="r2" depart="805.1"/>
  <vehicle id="veh331" type="car" route="r2" depart="807.6"/>
  <vehicle id="veh332" type="car" route="r2" depart="811.2"/>
  <vehicle id="veh333" type="car" route="r9" depart="811.3"/>
  <vehicle id="veh334" type="scooter" route="r3" depart="815.9"/>
  <vehicle id="veh335" type="bus" route="r9" depart="817.1"/>
  <vehicle id="veh336" type="car" route="r6" depart="817.2"/>
  <vehicle id="veh337" type="car" route="r1" depart="817.9"/>
  <vehicle id="veh338" type="truck" route="r11" depart="818.3"/>
  <vehicle id="veh339" type="car" route="r5" depart="818.3"/>
  <vehicle id="veh340" type="scooter" route="r2" depart="821.8"/>
  <vehicle id="veh341" type="car" route="r4" depart="824.8"/>
  <vehicle id="veh342" type="bus" route="r1" depart="825.8"/>
  <vehicle id="veh343" type="car" route="r8" depart="830.6"/>
  <vehicle id="veh344" type="car" route="r10" depart="833.0"/>
  <vehicle id="veh345" type="truck" route="r0" depart="836.5"/>
  <vehicle id="veh346" type="scooter" route="r8" depart="840.1"/>
  <vehicle id="veh347" type="car" route="r5" depart="841.5"/>
  <vehicle id="veh348" type="car" route="r10" depart="845.1"/>
  <vehicle id="veh349" type="truck" route="r8" depart="845.8"/>
  <vehicle id="veh350" type="truck" route="r9" depart="849.0"/>
  <vehicle id="veh351" type="bus" route="r6" depart="851.5"/>
  <vehicle id="veh352" type="truck" route="r5" depart="854.9"/>
  <vehicle id="veh353" type="car" route="r2" depart="858.9"/>
  <vehicle id="veh354" type="bus" route="r5" depart="859.0"/>
  <vehicle id="veh355" type="scooter" route="r9" depart="862.4"/>
  <vehicle id="veh356" type="car" route="r0" depart="865.8"/>
  <vehicle id="veh357" type="car" route="r11" depart="870.4"/>
  <vehicle id="veh358" type="bus" route="r2" depart="871.2"/>
  <vehicle id="veh359" type="car" route="r6" depart="871.8"/>
  <vehicle id="veh360" type="car" route="r4" depart="874.8"/>
  <vehicle id="veh361" type="bus" route="r5" depart="875.6"/>
  <vehicle id="veh362" type="bus" route="r3" depart="880.5"/>
  <vehicle id="veh363" type="bus" route="r1" depart="884.5"/>
  <vehicle id="veh364" type="bus" route="r3" depart="885.7"/>
  <vehicle id="veh365" type="car" route="r4" depart="887.0"/>
  <vehicle id="veh366" type="bus" route="r9" depart="887.6"/>
  <vehicle id="veh367" type="car" route="r0" depart="889.6"/>
  <vehicle id="veh368" type="car" route="r7" depart="893.8"/>
  <vehicle id="veh369" type="car" route="r1" depart="893.8"/>
  <vehicle id="veh370" type="bus" route="r5" depart="894.6"/>
  <vehicle id="veh371" type="truck" route="r2" depart="896.6"/>
  <vehicle id="veh372" type="car" route="r10" depart="900.6"/>
  <vehicle id="veh373" type="bus" route="r3" depart="903.0"/>
  <vehicle id="veh374" type="scooter" route="r11" depart="905.1"/>
  <vehicle id="veh375" type="car" route="r1" depart="907.7"/>
  <vehicle id="veh376" type="car" route="r6" depart="910.9"/>
  <vehicle id="veh377" type="truck" route="r9" depart="911.4"/>
  <vehicle id="veh378" type="car" route="r1" depart="914.3"/>
  <vehicle id="veh379" type="scooter" route="r10" depart="916.9"/>
  <vehicle id="veh380" type="car" route="r5" depart="917.9"/>
  <vehicle id="veh381" type="scooter" route="r6" depart="920.1"/>
  <vehicle id="veh382" type="car" route="r2" depart="925.1"/>
  <vehicle id="veh383" type="bus" route="r5" depart="927.9"/>
  <vehicle id="veh384" type="bus" route="r8" depart="929.3"/>
  <vehicle id="veh385" type="car" route="r3" depart="929.4"/>
  <vehicle id="veh386" type="truck" route="r7" depart="931.0"/>
  <vehicle id="veh387" type="car" route="r0" depart="933.3"/>
  <vehicle id="veh388" type="car" route="r1" depart="937.7"/>
  <vehicle id="veh389" type="scooter" route="r3" depart="940.8"/>
  <vehicle id="veh390" type="bus" route="r7" depart="942.1"/>
  <vehicle id="veh391" type="car" route="r11" depart="942.6"/>
  <vehicle id="veh392" type="car" route="r9" depart="944.1"/>
  <vehicle id="veh393" type="truck" route="r0" depart="947.6"/>
  <vehicle id="veh394" type="car" route="r10" depart="947.8"/>
  <vehicle id="veh395" type="scooter" route="r11" depart="952.2"/>
  <vehicle id="veh396" type="scooter" route="r11" depart="952.8"/>
  <vehicle id="veh397" type="car" route="r10" depart="954.2"/>
  <vehicle id="veh398" type="car" route="r8" depart="956.9"/>
  <vehicle id="veh399" type="truck" route="r0" depart="961.7"/>
  <vehicle id="veh400" type="truck" route="r4" depart="962.0"/>
  <vehicle id="veh401" type="bus" route="r2" depart="962.6"/>
  <vehicle id="veh402" type="truck" route="r5" depart="967.1"/>
  <vehicle id="veh403" type="car" route="r10" depart="970.0"/>
  <vehicle id="veh404" type="car" route="r8" depart="971.9"/>
  <vehicle id="veh405" type="car" route="r11" depart="973.8"/>
  <vehicle id="veh406" type="car" route="r2" depart="975.4"/>
  <vehicle id="veh407" type="truck" route="r6" depart="979.7"/>
  <vehicle id="veh408" type="bus" route="r11" depart="982.2"/>
  <vehicle id="veh409" type="car" route="r6" depart="983.0"/>
  <vehicle id="veh410" type="scooter" route="r8" depart="984.1"/>
  <vehicle id="veh411" type="car" route="r2" depart="984.9"/>
  <vehicle id="veh412" type="bus" route="r4" depart="986.5"/>
  <vehicle id="veh413" type="scooter" route="r7" depart="986.9"/>
  <vehicle id="veh414" type="car" route="r7" depart="989.3"/>
  <vehicle id="veh415" type="scooter" route="r3" depart="991.6"/>
  <vehicle id="veh416" type="scooter" route="r9" depart="996.2"/>
  <vehicle id="veh417" type="car" route="r7" depart="998.0"/>
  <vehicle id="veh418" type="scooter" route="r2" depart="999.3"/>
  <vehicle id="veh419" type="car" route="r6" depart="999.5"/>
  <vehicle id="veh420" type="car" route="r2" depart="1002.0"/>
  <vehicle id="veh421" type="bus" route="r6" depart="1004.1"/>
  <vehicle id="veh422" type="bus" route="r9" depart="1006.7"/>
  <vehicle id="veh423" type="scooter" route="r2" depart="1011.3"/>
  <vehicle id="veh424" type="car" route="r8" depart="1014.3"/>
  <vehicle id="veh425" type="scooter" route="r3" depart="1015.2"/>
  <vehicle id="veh426" type="car" route="r0" depart="1017.9"/>
  <vehicle id="veh427" type="scooter" route="r2" depart="1018.9"/>
  <vehicle id="veh428" type="car" route="r3" depart="1019.1"/>
  <vehicle id="veh429" type="car" route="r0" depart="1024.0"/>
  <vehicle id="veh430" type="car" route="r3" depart="1026.0"/>
  <vehicle id="veh431" type="bus" route="r1" depart="1029.1"/>
  <vehicle id="veh432" type="scooter" route="r2" depart="1030.8"/>
  <vehicle id="veh433" type="car" route="r5" depart="1031.1"/>
  <vehicle id="veh434" type="scooter" route="r2" depart="1031.8"/>
  <vehicle id="veh435" type="bus" route="r8" depart="1036.6"/>
  <vehicle id="veh436" type="car" route="r4" depart="1040.7"/>
  <vehicle id="veh437" type="car" route="r5" depart="1043.1"/>
  <vehicle id="veh438" type="car" route="r9" depart="1046.9"/>
  <vehicle id="veh439" type="car" route="r11" depart="1047.1"/>
  <vehicle id="veh440" type="car" route="r8" depart="1049.1"/>
  <vehicle id="veh441" type="car" route="r11" depart="1053.8"/>
  <vehicle id="veh442" type="bus" route="r3" depart="1056.0"/>
  <vehicle id="veh443" type="car" route="r6" depart="1060.8"/>
  <vehicle id="veh444" type="car" route="r0" depart="1062.9"/>
  <vehicle id="veh445" type="car" route="r5" depart="1066.4"/>
  <vehicle id="veh446" type="bus" route="r0" depart="1071.2"/>
  <vehicle id="veh447" type="car" route="r8" depart="1075.9"/>
  <vehicle id="veh448" type="bus" route="r3" depart="1078.2"/>
  <vehicle id="veh449" type="truck" route="r0" depart="1080.3"/>
  <vehicle id="veh450" type="car" route="r7" depart="1083.3"/>
  <vehicle id="veh451" type="bus" route="r8" depart="1086.8"/>
  <vehicle id="veh452" type="car" route="r9" depart="1090.6"/>
  <vehicle id="veh453" type="car" route="r2" depart="1094.9"/>
  <vehicle id="veh454" type="scooter" route="r3" depart="1095.9"/>
  <vehicle id="veh455" type="scooter" route="r11" depart="1099.1"/>
  <vehicle id="veh456" type="car" route="r10" depart="1101.1"/>
  <vehicle id="veh457" type="truck" route="r7" depart="1104.4"/>
  <vehicle id="veh458" type="car" route="r9" depart="1106.9"/>
  <vehicle id="veh459" type="scooter" route="r2" depart="1111.3"/>
  <vehicle id="veh460" type="car" route="r7" depart="1112.2"/>
  <vehicle id="veh461" type="truck" route="r1" depart="1117.0"/>
  <vehicle id="veh462" type="truck" route="r3" depart="1120.1"/>
  <vehicle id="veh463" type="car" route="r9" depart="1123.6"/>