<routes>
  <vType id="car" accel="1.0" decel="4.5" maxSpeed="25" length="5"/>
  <vType id="truck" accel="0.5" decel="3.0" maxSpeed="18" length="12"/>
  <vType id="bus" accel="0.8" decel="3.5" maxSpeed="20" length="10"/>
  <vType id="scooter" accel="1.5" decel="4.0" maxSpeed="30" length="2"/>
  <route id="r0" edges="-north east"/>
  <route id="r1" edges="-north south"/>
  <route id="r2" edges="-north west"/>
  <route id="r3" edges="-east north"/>
  <route id="r4" edges="-east south"/>
  <route id="r5" edges="-east west"/>
  <route id="r6" edges="-south north"/>
  <route id="r7" edges="-south east"/>
  <route id="r8" edges="-south west"/>
  <route id="r9" edges="-west north"/>
  <route id="r10" edges="-west east"/>
  <route id="r11" edges="-west south"/>
  <vehicle id="veh0" type="truck" route="r8" depart="0.0"/>
  <vehicle id="veh1" type="car" route="r5" depart="1.5"/>
  <vehicle id="veh2" type="scooter" route="r1" depart="2.0"/>
  <vehicle id="veh3" type="car" route="r1" depart="4.9"/>
  <vehicle id="veh4" type="car" route="r3" depart="8.7"/>
  <vehicle id="veh5" type="truck" route="r9" depart="10.4"/>
  <vehicle id="veh6" type="car" route="r11" depart="11.1"/>
  <vehicle id="veh7" type="car" route="r2" depart="16.1"/>
  <vehicle id="veh8" type="bus" route="r5" depart="16.2"/>
  <vehicle id="veh9" type="car" route="r8" depart="16.5"/>
  <vehicle id="veh10" type="car" route="r8" depart="20.9"/>
  <vehicle id="veh11" type="car" route="r11" depart="22.4"/>
  <vehicle id="veh12" type="car" route="r0" depart="25.6"/>
  <vehicle id="veh13" type="car" route="r11" depart="30.3"/>
  <vehicle id="veh14" type="car" route="r3" depart="35.2"/>
  <vehicle id="veh15" type="car" route="r9" depart="35.6"/>
  <vehicle id="veh16" type="truck" route="r3" depart="37.2"/>
  <vehicle id="veh17" type="car" route="r0" depart="38.3"/>
  <vehicle id="veh18" type="car" route="r8" depart="38.9"/>
  <vehicle id="veh19" type="scooter" route="r7" depart="42.5"/>
  <vehicle id="veh20" type="bus" route="r7" depart="46.7"/>
  <vehicle id="veh21" type="car" route="r2" depart="49.8"/>
  <vehicle id="veh22" type="bus" route="r3" depart="52.3"/>
  <vehicle id="veh23" type="scooter" route="r6" depart="55.1"/>
  <vehicle id="veh24" type="car" route="r7" depart="60.0"/>
  <vehicle id="veh25" type="car" route="r0" depart="64.1"/>
  <vehicle id="veh26" type="car" route="r0" depart="68.6"/>
  <vehicle id="veh27" type="bus" route="r3" depart="72.7"/>
  <vehicle id="veh28" type="car" route="r9" depart="74.5"/>
  <vehicle id="veh29" type="car" route="r3" depart="76.3"/>
  <vehicle id="veh30" type="truck" route="r8" depart="80.9"/>
  <vehicle id="veh31" type="car" route="r10" depart="81.1"/>
  <vehicle id="veh32" type="bus" route="r2" depart="81.6"/>
  <vehicle id="veh33" type="bus" route="r9" depart="82.3"/>
  <vehicle id="veh34" type="car" route="r1" depart="86.5"/>
  <vehicle id="veh35" type="car" route="r7" depart="91.2"/>
  <vehicle id="veh36" type="car" route="r0" depart="95.3"/>
  <vehicle id="veh37" type="scooter" route="r5" depart="99.2"/>
  <vehicle id="veh38" type="car" route="r4" depart="100.3"/>
  <vehicle id="veh39" type="bus" route="r1" depart="104.4"/>
  <vehicle id="veh40" type="car" route="r8" depart="104.6"/>
  <vehicle id="veh41" type="car" route="r10" depart="106.3"/>
  <vehicle id="veh42" type="car" route="r8" depart="111.1"/>
  <vehicle id="veh43" type="car" route="r2" depart="113.8"/>
  <vehicle id="veh44" type="car" route="r5" depart="117.7"/>
  <vehicle id="veh45" type="car" route="r10" depart="119.8"/>
  <vehicle id="veh46" type="car" route="r0" depart="120.7"/>
  <vehicle id="veh47" type="car" route="r0" depart="125.0"/>
  <vehicle id="veh48" type="scooter" route="r5" depart="127.4"/>
  <vehicle id="veh49" type="scooter" route="r7" depart="131.1"/>
  <vehicle id="veh50" type="car" route="r2" depart="131.8"/>
  <vehicle id="veh51" type="car" route="r8" depart="133.5"/>
  <vehicle id="veh52" type="car" route="r0" depart="134.0"/>
  <vehicle id="veh53" type="car" route="r6" depart="134.3"/>
  <vehicle id="veh54" type="bus" route="r5" depart="134.6"/>
  <vehicle id="veh55" type="car" route="r0" depart="139.2"/>
  <vehicle id="veh56" type="car" route="r11" depart="142.0"/>
  <vehicle id="veh57" type="car" route="r9" depart="143.7"/>
  <vehicle id="veh58" type="bus" route="r8" depart="146.1"/>
  <vehicle id="veh59" type="car" route="r11" depart="150.3"/>
  <vehicle id="veh60" type="car" route="r4" depart="150.9"/>
  <vehicle id="veh61" type="car" route="r7" depart="154.7"/>
  <vehicle id="veh62" type="bus" route="r4" depart="159.1"/>
  <vehicle id="veh63" type="car" route="r11" depart="160.1"/>
  <vehicle id="veh64" type="bus" route="r6" depart="163.9"/>
  <vehicle id="veh65" type="scooter" route="r10" depart="166.3"/>
  <vehicle id="veh66" type="car" route="r6" depart="168.6"/>
  <vehicle id="veh67" type="truck" route="r10" depart="172.1"/>
  <vehicle id="veh68" type="car" route="r2" depart="175.9"/>
  <vehicle id="veh69" type="scooter" route="r9" depart="179.3"/>
  <vehicle id="veh70" type="scooter" route="r3" depart="180.3"/>
  <vehicle id="veh71" type="car" route="r0" depart="182.1"/>
  <vehicle id="veh72" type="car" route="r9" depart="182.4"/>
  <vehicle id="veh73" type="car" route="r4" depart="184.5"/>
  <vehicle id="veh74" type="car" route="r11" depart="185.5"/>
  <vehicle id="veh75" type="car" route="r6" depart="186.5"/>
  <vehicle id="veh76" type="bus" route="r3" depart="189.8"/>
  <vehicle id="veh77" type="scooter" route="r10" depart="190.0"/>
  <vehicle id="veh78" type="car" route="r5" depart="193.3"/>
  <vehicle id="veh79" type="car" route="r5" depart="197.1"/>
  <vehicle id="veh80" type="car" route="r0" depart="200.3"/>
  <vehicle id="veh81" type="car" route="r10" depart="201.6"/>
  <vehicle id="veh82" type="car" route="r3" depart="206.0"/>
  <vehicle id="veh83" type="scooter" route="r8" depart="206.8"/>
  <vehicle id="veh84" type="car" route="r6" depart="207.0"/>
  <vehicle id="veh85" type="scooter" route="r4" depart="211.9"/>
  <vehicle id="veh86" type="car" route="r3" depart="216.2"/>
  <vehicle id="veh87" type="car" route="r4" depart="220.2"/>
  <vehicle id="veh88" type="car" route="r11" depart="224.2"/>
  <vehicle id="veh89" type="bus" route="r2" depart="227.6"/>
  <vehicle id="veh90" type="car" route="r11" depart="231.0"/>
  <vehicle id="veh91" type="car" route="r11" depart="232.6"/>
  <vehicle id="veh92" type="truck" route="r3" depart="237.5"/>
  <vehicle id="veh93" type="scooter" route="r11" depart="240.4"/>
  <vehicle id="veh94" type="scooter" route="r5" depart="244.4"/>
  <vehicle id="veh95" type="bus" route="r0" depart="247.1"/>
  <vehicle id="veh96" type="bus" route="r7" depart="250.4"/>
  <vehicle id="veh97" type="car" route="r8" depart="251.2"/>
  <vehicle id="veh98" type="car" route="r1" depart="253.4"/>
  <vehicle id="veh99" type="bus" route="r4" depart="254.9"/>
  <vehicle id="veh100" type="car" route="r9" depart="255.5"/>
  <vehicle id="veh101" type="car" route="r2" depart="255.9"/>
  <vehicle id="veh102" type="car" route="r0" depart="256.8"/>
  <vehicle id="veh103" type="truck" route="r2" depart="261.7"/>
  <vehicle id="veh104" type="car" route="r3" depart="265.8"/>
  <vehicle id="veh105" type="car" route="r10" depart="269.2"/>
  <vehicle id="veh106" type="car" route="r11" depart="269.8"/>
  <vehicle id="veh107" type="truck" route="r4" depart="273.5"/>
  <vehicle id="veh108" type="car" route="r10" depart="277.1"/>
  <vehicle id="veh109" type="car" route="r10" depart="277.7"/>
  <vehicle id="veh110" type="car" route="r8" depart="281.1"/>
  <vehicle id="veh111" type="scooter" route="r1" depart="284.8"/>
  <vehicle id="veh112" type="bus" route="r2" depart="288.2"/>
  <vehicle id="veh113" type="car" route="r0" depart="291.9"/>
  <vehicle id="veh114" type="car" route="r3" depart="295.8"/>
  <vehicle id="veh115" type="car" route="r3" depart="297.3"/>
  <vehicle id="veh116" type="car" route="r5" depart="301.6"/>
  <vehicle id="veh117" type="car" route="r6" depart="301.8"/>
  <vehicle id="veh118" type="bus" route="r5" depart="306.7"/>
  <vehicle id="veh119" type="car" route="r7" depart="308.6"/>
  <vehicle id="veh120" type="bus" route="r11" depart="310.1"/>
  <vehicle id="veh121" type="truck" route="r3" depart="313.4"/>
  <vehicle id="veh122" type="car" route="r7" depart="318.4"/>
  <vehicle id="veh123" type="bus" route="r7" depart="321.1"/>
  <vehicle id="veh124" type="car" route="r7" depart="325.2"/>
  <vehicle id="veh125" type="car" route="r4" depart="327.4"/>
  <vehicle id="veh126" type="car" route="r11" depart="329.9"/>
  <vehicle id="veh127" type="car" route="r0" depart="330.6"/>
  <vehicle id="veh128" type="car" route="r9" depart="335.4"/>
  <vehicle id="veh129" type="truck" route="r10" depart="338.9"/>
  <vehicle id="veh130" type="car" route="r6" depart="342.6"/>
  <vehicle id="veh131" type="car" route="r10" depart="344.7"/>
  <vehicle id="veh132" type="car" route="r10" depart="345.0"/>
  <vehicle id="veh133" type="truck" route="r8" depart="347.2"/>
  <vehicle id="veh134" type="car" route="r4" depart="349.1"/>
  <vehicle id="veh135" type="truck" route="r5" depart="352.0"/>
  <vehicle id="veh136" type="car" route="r4" depart="352.6"/>
  <vehicle id="veh137" type="scooter" route="r8" depart="355.6"/>
  <vehicle id="veh138" type="car" route="r10" depart="356.8"/>
  <vehicle id="veh139" type="scooter" route="r4" depart="359.4"/>
  <vehicle id="veh140" type="car" route="r7" depart="360.6"/>
  <vehicle id="veh141" type="car" route="r4" depart="364.3"/>
  <vehicle id="veh142" type="car" route="r2" depart="367.2"/>
  <vehicle id="veh143" type="bus" route="r6" depart="371.7"/>
  <vehicle id="veh144" type="bus" route="r2" depart="371.9"/>
  <vehicle id="veh145" type="car" route="r3" depart="373.5"/>
  <vehicle id="veh146" type="car" route="r1" depart="376.6"/>
  <vehicle id="veh147" type="truck" route="r0" depart="377.8"/>
  <vehicle id="veh148" type="truck" route="r3" depart="378.4"/>
  <vehicle id="veh149" type="car" route="r2" depart="380.5"/>
  <vehicle id="veh150" type="scooter" route="r6" depart="384.6"/>
  <vehicle id="veh151" type="car" route="r9" depart="384.8"/>
  <vehicle id="veh152" type="scooter" route="r9" depart="385.0"/>
  <vehicle id="veh153" type="car" route="r6" depart="385.2"/>
  <vehicle id="veh154" type="scooter" route="r1" depart="387.6"/>
  <vehicle id="veh155" type="bus" route="r1" depart="392.2"/>
  <vehicle id="veh156" type="bus" route="r5" depart="395.9"/>
  <vehicle id="veh157" type="bus" route="r7" depart="400.9"/>
  <vehicle id="veh158" type="scooter" route="r10" depart="402.1"/>
  <vehicle id="veh159" type="scooter" route="r5" depart="404.0"/>
  <vehicle id="veh160" type="car" route="r10" depart="404.1"/>
  <vehicle id="veh161" type="car" route="r4" depart="405.7"/>
  <vehicle id="veh162" type="car" route="r11" depart="407.7"/>
  <vehicle id="veh163" type="car" route="r10" depart="408.2"/>
  <vehicle id="veh164" type="scooter" route="r11" depart="412.2"/>
  <vehicle id="veh165" type="truck" route="r9" depart="412.6"/>
  <vehicle id="veh166" type="car" route="r6" depart="417.3"/>
  <vehicle id="veh167" type="scooter" route="r5" depart="420.9"/>
  <vehicle id="veh168" type="car" route="r5" depart="425.7"/>
  <vehicle id="veh169" type="car" route="r0" depart="426.3"/>
  <vehicle id="veh170" type="car" route="r5" depart="430.5"/>
  <vehicle id="veh171" type="car" route="r7" depart="431.0"/>
  <vehicle id="veh172" type="car" route="r4" depart="433.9"/>
  <vehicle id="veh173" type="car" route="r0" depart="438.7"/>
  <vehicle id="veh174" type="car" route="r9" depart="440.7"/>
  <vehicle id="veh175" type="scooter" route="r3" depart="444.9"/>
  <vehicle id="veh176" type="truck" route="r4" depart="448.6"/>
  <vehicle id="veh177" type="car" route="r8" depart="451.7"/>
  <vehicle id="veh178" type="car" route="r9" depart="455.9"/>
  <vehicle id="veh179" type="scooter" route="r2" depart="458.8"/>
  <vehicle id="veh180" type="car" route="r2" depart="460.5"/>
  <vehicle id="veh181" type="scooter" route="r10" depart="464.5"/>
  <vehicle id="veh182" type="bus" route="r3" depart="465.8"/>
  <vehicle id="veh183" type="truck" route="r4" depart="467.4"/>
  <vehicle id="veh184" type="car" route="r4" depart="468.1"/>
  <vehicle id="veh185" type="car" route="r6" depart="469.6"/>
  <vehicle id="veh186" type="bus" route="r7" depart="474.2"/>
  <vehicle id="veh187" type="car" route="r3" depart="478.7"/>
  <vehicle id="veh188" type="bus" route="r5" depart="479.7"/>
  <vehicle id="veh189" type="car" route="r10" depart="482.4"/>
  <vehicle id="veh190" type="scooter" route="r8" depart="485.6"/>
  <vehicle id="veh191" type="bus" route="r11" depart="486.5"/>
  <vehicle id="veh192" type="car" route="r10" depart="487.2"/>
  <vehicle id="veh193" type="car" route="r7" depart="487.3"/>
  <vehicle id="veh194" type="car" route="r4" depart="488.6"/>
  <vehicle id="veh195" type="car" route="r8" depart="489.7"/>
  <vehicle id="veh196" type="scooter" route="r5" depart="494.3"/>
  <vehicle id="veh197" type="car" route="r7" depart="497.5"/>
  <vehicle id="veh198" type="scooter" route="r11" depart="497.5"/>
  <vehicle id="veh199" type="car" route="r8" depart="502.0"/>
  <vehicle id="veh200" type="car" route="r7" depart="504.7"/>
  <vehicle id="veh201" type="truck" route="r5" depart="509.1"/>
  <vehicle id="veh202" type="car" route="r3" depart="509.5"/>
  <vehicle id="veh203" type="bus" route="r7" depart="512.7"/>
  <vehicle id="veh204" type="truck" route="r7" depart="513.4"/>
  <vehicle id="veh205" type="truck" route="r9" depart="513.9"/>
  <vehicle id="veh206" type="car" route="r0" depart="514.2"/>
  <vehicle id="veh207" type="scooter" route="r11" depart="514.4"/>
  <vehicle id="veh208" type="bus" route="r3" depart="516.8"/>
  <vehicle id="veh209" type="bus" route="r11" depart="517.1"/>
  <vehicle id="veh210" type="car" route="r2" depart="520.0"/>
  <vehicle id="veh211" type="bus" route="r11" depart="521.2"/>
  <vehicle id="veh212" type="car" route="r9" depart="525.0"/>
  <vehicle id="veh213" type="car" route="r3" depart="527.4"/>
  <vehicle id="veh214" type="scooter" route="r7" depart="532.2"/>
  <vehicle id="veh215" type="scooter" route="r8" depart="532.3"/>
  <vehicle id="veh216" type="car" route="r5" depart="534.8"/>
  <vehicle id="veh217" type="car" route="r8" depart="538.3"/>
  <vehicle id="veh218" type="scooter" route="r5" depart="539.2"/>
  <vehicle id="veh219" type="car" route="r1" depart="543.8"/>
  <vehicle id="veh220" type="bus" route="r1" depart="545.9"/>
  <vehicle id="veh221" type="car" route="r5" depart="548.9"/>
  <vehicle id="veh222" type="bus" route="r7" depart="550.0"/>
  <vehicle id="veh223" type="scooter" route="r4" depart="554.3"/>
  <vehicle id="veh224" type="bus" route="r3" depart="557.7"/>
  <vehicle id="veh225" type="car" route="r9" depart="557.9"/>
  <vehicle id="veh226" type="car" route="r10" depart="562.1"/>
  <vehicle id="veh227" type="scooter" route="r8" depart="563.2"/>
  <vehicle id="veh228" type="car" route="r9" depart="566.8"/>
  <vehicle id="veh229" type="bus" route="r11" depart="569.4"/>
  <vehicle id="veh230" type="car" route="r11" depart="572.3"/>
  <vehicle id="veh231" type="car" route="r2" depart="572.4"/>
  <vehicle id="veh232" type="car" route="r1" depart="572.6"/>
  <vehicle id="veh233" type="car" route="r5" depart="577.4"/>
  <vehicle id="veh234" type="car" route="r7" depart="581.5"/>
  <vehicle id="veh235" type="bus" route="r0" depart="584.6"/>
  <vehicle id="veh236" type="car" route="r11" depart="585.8"/>
  <vehicle id="veh237" type="car" route="r4" depart="590.2"/>
  <vehicle id="veh238" type="truck" route="r2" depart="593.7"/>
  <vehicle id="veh239" type="truck" route="r3" depart="594.9"/>
  <vehicle id="veh240" type="car" route="r7" depart="597.3"/>
  <vehicle id="veh241" type="bus" route="r11" depart="600.8"/>
  <vehicle id="veh242" type="car" route="r6" depart="603.8"/>
  <vehicle id="veh243" type="truck" route="r10" depart="604.5"/>
  <vehicle id="veh244" type="bus" route="r7" depart="605.6"/>
  <vehicle id="veh245" type="car" route="r11" depart="606.9"/>
  <vehicle id="veh246" type="scooter" route="r0" depart="609.5"/>
  <vehicle id="veh247" type="bus" route="r5" depart="610.3"/>
  <vehicle id="veh248" type="car" route="r2" depart="615.0"/>
  <vehicle id="veh249" type="scooter" route="r0" depart="619.9"/>
  <vehicle id="veh250" type="car" route="r5" depart="621.5"/>
  <vehicle id="veh251" type="car" route="r0" depart="623.4"/>
  <vehicle id="veh252" type="scooter" route="r2" depart="625.8"/>
  <vehicle id="veh253" type="bus" route="r3" depart="627.9"/>
  <vehicle id="veh254" type="scooter" route="r8" depart="628.2"/>
  <vehicle id="veh255" type="bus" route="r4" depart="631.5"/>
  <vehicle id="veh256" type="car" route="r1" depart="634.0"/>
  <vehicle id="veh257" type="scooter" route="r9" depart="638.1"/>
  <vehicle id="veh258" type="truck" route="r9" depart="641.3"/>
  <vehicle id="veh259" type="car" route="r6" depart="642.1"/>
  <vehicle id="veh260" type="car" route="r11" depart="643.6"/>
  <vehicle id="veh261" type="scooter" route="r4" depart="646.1"/>
  <vehicle id="veh262" type="car" route="r5" depart="646.9"/>
  <vehicle id="veh263" type="car" route="r6" depart="648.2"/>
  <vehicle id="veh264" type="car" route="r4" depart="652.7"/>
  <vehicle id="veh265" type="car" route="r4" depart="654.2"/>
  <vehicle id="veh266" type="scooter" route="r1" depart="657.7"/>
  <vehicle id="veh267" type="truck" route="r9" depart="658.5"/>
  <vehicle id="veh268" type="car" route="r3" depart="658.9"/>
  <vehicle id="veh269" type="car" route="r3" depart="661.0"/>
  <vehicle id="veh270" type="car" route="r2" depart="662.0"/>
  <vehicle id="veh271" type="car" route="r10" depart="665.6"/>
  <vehicle id="veh272" type="car" route="r9" depart="667.7"/>
  <vehicle id="veh273" type="scooter" route="r6" depart="668.5"/>
  <vehicle id="veh274" type="scooter" route="r3" depart="672.9"/>
  <vehicle id="veh275" type="car" route="r3" depart="674.3"/>
  <vehicle id="veh276" type="truck" route="r9" depart="677.8"/>
  <vehicle id="veh277" type="scooter" route="r10" depart="679.3"/>
  <vehicle id="veh278" type="car" route="r11" depart="683.3"/>
  <vehicle id="veh279" type="car" route="r8" depart="686.9"/>
  <vehicle id="veh280" type="car" route="r5" depart="688.5"/>
  <vehicle id="veh281" type="car" route="r1" depart="692.6"/>
  <vehicle id="veh282" type="car" route="r11" depart="694.1"/>
  <vehicle id="veh283" type="truck" route="r2" depart="694.3"/>
  <vehicle id="veh284" type="car" route="r11" depart="694.4"/>
  <vehicle id="veh285" type="car" route="r1" depart="699.0"/>
  <vehicle id="veh286" type="scooter" route="r2" depart="702.3"/>
  <vehicle id="veh287" type="scooter" route="r0" depart="705.4"/>
  <vehicle id="veh288" type="car" route="r1" depart="705.9"/>
  <vehicle id="veh289" type="car" route="r1" depart="706.8"/>
  <vehicle id="veh290" type="bus" route="r9" depart="709.2"/>
  <vehicle id="veh291" type="car" route="r3" depart="713.7"/>
  <vehicle id="veh292" type="bus" route="r9" depart="714.2"/>
  <vehicle id="veh293" type="truck" route="r5" depart="718.5"/>
  <vehicle id="veh294" type="scooter" route="r7" depart="722.8"/>
  <vehicle id="veh295" type="scooter" route="r6" depart="725.8"/>
  <vehicle id="veh296" type="truck" route="r3" depart="727.1"/>
  <vehicle id="veh297" type="bus" route="r1" depart="732.0"/>
  <vehicle id="veh298" type="bus" route="r6" depart="735.8"/>
  <vehicle id="veh299" type="car" route="r7" depart="740.6"/>
  <vehicle id="veh300" type="scooter" route="r9" depart="743.2"/>
  <vehicle id="veh301" type="bus" route="r11" depart="743.7"/>
  <vehicle id="veh302" type="truck" route="r10" depart="745.0"/>
  <vehicle id="veh303" type="truck" route="r5" depart="746.2"/>
  <vehicle id="veh304" type="car" route="r1" depart="750.9"/>
  <vehicle id="veh305" type="car" route="r0" depart="755.9"/>
  <vehicle id="veh306" type="car" route="r9" depart="759.4"/>
  <vehicle id="veh307" type="truck" route="r3" depart="760.8"/>
  <vehicle id="veh308" type="car" route="r8" depart="760.8"/>
  <vehicle id="veh309" type="bus" route="r1" depart="764.3"/>
  <vehicle id="veh310" type="car" route="r9" depart="765.4"/>
  <vehicle id="veh311" type="car" route="r9" depart="766.7"/>
  <vehicle id="veh312" type="truck" route="r10" depart="768.2"/>
  <vehicle id="veh313" type="scooter" route="r9" depart="769.6"/>
  <vehicle id="veh314" type="car" route="r7" depart="774.0"/>
  <vehicle id="veh315" type="car" route="r9" depart="775.4"/>
  <vehicle id="veh316" type="car" route="r3" depart="779.3"/>
  <vehicle id="veh317" type="car" route="r6" depart="780.3"/>
  <vehicle id="veh318" type="car" route="r5" depart="783.2"/>
  <vehicle id="veh319" type="truck" route="r10" depart="787.0"/>
  <vehicle id="veh320" type="scooter" route="r7" depart="787.7"/>
  <vehicle id="veh321" type="truck" route="r8" depart="791.2"/>
  <vehicle id="veh322" type="bus" route="r1" depart="795.0"/>
  <vehicle id="veh323" type="scooter" route="r5" depart="799.1"/>
  <vehicle id="veh324" type="car" route="r8" depart="801.7"/>
  <vehicle id="veh325" type="truck" route="r10" depart="802.3"/>
  <vehicle id="veh326" type="car" route="r5" depart="804.3"/>
  <vehicle id="veh327" type="bus" route="r7" depart="806.2"/>
  <vehicle id="veh328" type="car" route="r6" depart="808.3"/>
  <vehicle id="veh329" type="car" route="r10" depart="812.8"/>
  <vehicle id="veh330" type="car" route="r9" depart="816.6"/>
  <vehicle id="veh331" type="car" route="r9" depart="819.5"/>
  <vehicle id="veh332" type="car" route="r11" depart="822.5"/>
  <vehicle id="veh333" type="car" route="r5" depart="824.0"/>
  <vehicle id="veh334" type="car" route="r10" depart="827.8"/>
  <vehicle id="veh335" type="scooter" route="r0" depart="830.0"/>
  <vehicle id="veh336" type="car" route="r8" depart="832.0"/>
  <vehicle id="veh337" type="scooter" route="r3" depart="835.6"/>
  <vehicle id="veh338" type="scooter" route="r10" depart="838.0"/>
  <vehicle id="veh339" type="truck" route="r11" depart="839.4"/>
  <vehicle id="veh340" type="car" route="r11" depart="841.6"/>
  <vehicle id="veh341" type="car" route="r11" depart="846.4"/>
  <vehicle id="veh342" type="bus" route="r8" depart="847.0"/>
  <vehicle id="veh343" type="car" route="r3" depart="849.5"/>
  <vehicle id="veh344" type="car" route="r7" depart="853.7"/>
  <vehicle id="veh345" type="car" route="r8" depart="858.4"/>
  <vehicle id="veh346" type="car" route="r0" depart="862.2"/>
  <vehicle id="veh347" type="car" route="r2" depart="865.7"/>
  <vehicle id="veh348" type="car" route="r7" depart="869.1"/>
  <vehicle id="veh349" type="car" route="r5" depart="870.8"/>
  <vehicle id="veh350" type="bus" route="r3" depart="872.4"/>
  <vehicle id="veh351" type="car" route="r7" depart="873.3"/>
  <vehicle id="veh352" type="bus" route="r1" depart="873.3"/>
  <vehicle id="veh353" type="scooter" route="r11" depart="876.2"/>
  <vehicle id="veh354" type="truck" route="r5" depart="881.1"/>
  <vehicle id="veh355" type="car" route="r1" depart="884.8"/>
  <vehicle id="veh356" type="bus" route="r11" depart="887.7"/>
  <vehicle id="veh357" type="car" route="r5" depart="889.2"/>
  <vehicle id="veh358" type="scooter" route="r9" depart="890.5"/>
  <vehicle id="veh359" type="truck" route="r0" depart="891.6"/>
  <vehicle id="veh360" type="car" route="r4" depart="895.5"/>
  <vehicle id="veh361" type="scooter" route="r9" depart="900.1"/>
  <vehicle id="veh362" type="bus" route="r8" depart="904.3"/>
  <vehicle id="veh363" type="car" route="r2" depart="905.0"/>
  <vehicle id="veh364" type="car" route="r1" depart="905.7"/>
  <vehicle id="veh365" type="bus" route="r10" depart="906.7"/>
  <vehicle id="veh366" type="scooter" route="r9" depart="911.6"/>
  <vehicle id="veh367" type="scooter" route="r9" depart="915.5"/>
  <vehicle id="veh368" type="car" route="r9" depart="917.4"/>
  <vehicle id="veh369" type="car" route="r4" depart="921.4"/>
  <vehicle id="veh370" type="scooter" route="r0" depart="923.2"/>
  <vehicle id="veh371" type="scooter" route="r4" depart="924.6"/>
  <vehicle id="veh372" type="car" route="r11" depart="925.7"/>
  <vehicle id="veh373" type="scooter" route="r4" depart="930.4"/>
  <vehicle id="veh374" type="bus" route="r8" depart="931.8"/>
  <vehicle id="veh375" type="scooter" route="r8" depart="932.8"/>
  <vehicle id="veh376" type="scooter" route="r10" depart="933.8"/>
  <vehicle id="veh377" type="car" route="r2" depart="934.5"/>
  <vehicle id="veh378" type="bus" route="r4" depart="935.8"/>
  <vehicle id="veh379" type="car" route="r2" depart="940.5"/>
  <vehicle id="veh380" type="truck" route="r9" depart="942.3"/>
  <vehicle id="veh381" type="car" route="r2" depart="944.9"/>
  <vehicle id="veh382" type="bus" route="r9" depart="949.9"/>
  <vehicle id="veh383" type="scooter" route="r7" depart="950.4"/>
  <vehicle id="veh384" type="car" route="r2" depart="952.9"/>
  <vehicle id="veh385" type="car" route="r10" depart="954.8"/>
  <vehicle id="veh386" type="scooter" route="r3" depart="955.5"/>
  <vehicle id="veh387" type="car" route="r2" depart="959.7"/>
  <vehicle id="veh388" type="scooter" route="r8" depart="962.8"/>
  <vehicle id="veh389" type="car" route="r9" depart="965.0"/>
  <vehicle id="veh390" type="car" route="r9" depart="967.3"/>
  <vehicle id="veh391" type="truck" route="r6" depart="970.6"/>
  <vehicle id="veh392" type="car" route="r1" depart="972.7"/>
  <vehicle id="veh393" type="car" route="r3" depart="977.6"/>
  <vehicle id="veh394" type="truck" route="r8" depart="981.7"/>
  <vehicle id="veh395" type="bus" route="r11" depart="984.2"/>
  <vehicle id="veh396" type="bus" route="r9" depart="986.8"/>
  <vehicle id="veh397" type="car" route="r2" depart="987.8"/>
  <vehicle id="veh398" type="car" route="r9" depart="989.4"/>
  <vehicle id="veh399" type="car" route="r8" depart="993.4"/>
  <vehicle id="veh400" type="scooter" route="r4" depart="997.2"/>
  <vehicle id="veh401" type="car" route="r4" depart="1002.1"/>
  <vehicle id="veh402" type="scooter" route="r11" depart="1006.0"/>
  <vehicle id="veh403" type="car" route="r11" depart="1009.3"/>
  <vehicle id="veh404" type="car" route="r3" depart="1012.2"/>
  <vehicle id="veh405" type="car" route="r10" depart="1015.4"/>
  <vehicle id="veh406" type="scooter" route="r11" depart="1016.5"/>
  <vehicle id="veh407" type="truck" route="r8" depart="1017.9"/>
  <vehicle id="veh408" type="truck" route="r3" depart="1019.3"/>
  <vehicle id="veh409" type="truck" route="r2" depart="1020.8"/>
  <vehicle id="veh410" type="car" route="r7" depart="1021.5"/>
  <vehicle id="veh411" type="bus" route="r7" depart="1022.5"/>
  <vehicle id="veh412" type="car" route="r11" depart="1023.4"/>
  <vehicle id="veh413" type="scooter" route="r11" depart="1024.0"/>
  <vehicle id="veh414" type="car" route="r5" depart="1027.3"/>
  <vehicle id="veh415" type="car" route="r11" depart="1032.2"/>
  <vehicle id="veh416" type="car" route="r11" depart="1033.2"/>
  <vehicle id="veh417" type="car" route="r3" depart="1034.9"/>
  <vehicle id="veh418" type="scooter" route="r9" depart="1036.6"/>
  <vehicle id="veh419" type="bus" route="r0" depart="1040.1"/>
  <vehicle id="veh420" type="truck" route="r1" depart="1041.6"/>
  <vehicle id="veh421" type="car" route="r7" depart="1041.8"/>
  <vehicle id="veh422" type="scooter" route="r7" depart="1042.1"/>
  <vehicle id="veh423" type="scooter" route="r6" depart="1043.8"/>
  <vehicle id="veh424" type="car" route="r4" depart="1048.2"/>
  <vehicle id="veh425" type="car" route="r9" depart="1048.2"/>
  <vehicle id="veh426" type="car" route="r5" depart="1048.4"/>
  <vehicle id="veh427" type="bus" route="r2" depart="1052.5"/>
  <vehicle id="veh428" type="car" route="r7" depart="1055.9"/>
  <vehicle id="veh429" type="car" route="r0" depart="1060.5"/>
  <vehicle id="veh430" type="scooter" route="r0" depart="1063.9"/>
  <vehicle id="veh431" type="bus" route="r5" depart="1064.9"/>
  <vehicle id="veh432" type="scooter" route="r1" depart="1068.1"/>
  <vehicle id="veh433" type="car" route="r9" depart="1072.2"/>
  <vehicle id="veh434" type="car" route="r1" depart="1076.3"/>
  <vehicle id="veh435" type="car" route="r11" depart="1080.5"/>
  <vehicle id="veh436" type="scooter" route="r11" depart="1083.5"/>
  <vehicle id="veh437" type="scooter" route="r8" depart="1084.4"/>
  <vehicle id="veh438" type="truck" route="r4" depart="1086.0"/>
  <vehicle id="veh439" type="car" route="r1" depart="1089.3"/>
  <vehicle id="veh440" type="bus" route="r7" depart="1091.6"/>
  <vehicle id="veh441" type="scooter" route="r9" depart="1094.8"/>
  <vehicle id="veh442" type="bus" route="r10" depart="1095.4"/>
  <vehicle id="veh443" type="car" route="r0" depart="1099.3"/>
  <vehicle id="veh444" type="car" route="r5" depart="1100.9"/>
  <vehicle id="veh445" type="car" route="r4" depart="1103.3"/>
  <vehicle id="veh446" type="bus" route="r4" depart="1105.9"/>
  <vehicle id="veh447" type="bus" route="r7" depart="1110.7"/>
  <vehicle id="veh448" type="car" route="r6" depart="1114.4"/>
  <vehicle id="veh449" type="car" route="r0" depart="1115.9"/>
  <vehicle id="veh450" type="car" route="r11" depart="1120.5"/>
  <vehicle id="veh451" type="car" route="r8" depart="1121.4"/>
  <vehicle id="veh452" type="truck" route="r8" depart="1125.4"/>
  <vehicle id="veh453" type="car" route="r1" depart="1129.9"/>
  <vehicle id="veh454" type="car" route="r0" depart="1134.2"/>
  <vehicle id="veh455" type="truck" route="r10" depart="1138.3"/>
  <vehicle id="veh456" type="car" route="r6" depart="1139.8"/>
  <vehicle id="veh457" type="car" route="r5" depart="1142.4"/>
  <vehicle id="veh458" type="car" route="r0" depart="1146.5"/>
  <vehicle id="veh459" type="car" route="r4" depart="1148.8"/>
  <vehicle id="veh460" type="scooter" route="r7" depart="1150.2"/>
  <vehicle id="veh461" type="bus" route="r9" depart="1153.0"/>
  <vehicle id="veh462" type="truck" route="r5" depart="1155.1"/>
  <vehicle id="veh463" type="car" route="r4" depart="1158.2"/>