<routes>
  <vType id="car" accel="1.0" decel="4.5" maxSpeed="25" length="5"/>
  <vType id="truck" accel="0.5" decel="3.0" maxSpeed="18" length="12"/>
  <vType id="bus" accel="0.8" decel="3.5" maxSpeed="20" length="10"/>
  <vType id="scooter" accel="1.5" decel="4.0" maxSpeed="30" length="2"/>
  <route id="r0" edges="-north east"/>
  <route id="r1" edges="-north south"/>
  <route id="r2" edges="-north west"/>
  <route id="r3" edges="-east north"/>
  <route id="r4" edges="-east south"/>
  <route id="r5" edges="-east west"/>
  <route id="r6" edges="-south north"/>
  <route id="r7" edges="-south east"/>
  <route id="r8" edges="-south west"/>
  <route id="r9" edges="-west north"/>
  <route id="r10" edges="-west east"/>
  <route id="r11" edges="-west south"/>
  <vehicle id="veh0" type="car" route="r11" depart="0.0"/>
  <vehicle id="veh1" type="car" route="r1" depart="2.3"/>
  <vehicle id="veh2" type="bus" route="r4" depart="5.0"/>
  <vehicle id="veh3" type="bus" route="r8" depart="7.3"/>
  <vehicle id="veh4" type="bus" route="r9" depart="11.7"/>
  <vehicle id="veh5" type="car" route="r3" depart="12.7"/>
  <vehicle id="veh6" type="car" route="r3" depart="13.7"/>
  <vehicle id="veh7" type="car" route="r11" depart="18.4"/>
  <vehicle id="veh8" type="car" route="r8" depart="18.6"/>
  <vehicle id="veh9" type="car" route="r9" depart="19.8"/>
  <vehicle id="veh10" type="scooter" route="r1" depart="23.5"/>
  <vehicle id="veh11" type="scooter" route="r10" depart="25.1"/>
  <vehicle id="veh12" type="bus" route="r11" depart="30.0"/>
  <vehicle id="veh13" type="car" route="r8" depart="30.6"/>
  <vehicle id="veh14" type="scooter" route="r10" depart="33.6"/>
  <vehicle id="veh15" type="scooter" route="r4" depart="34.6"/>
  <vehicle id="veh16" type="scooter" route="r1" depart="36.6"/>
  <vehicle id="veh17" type="car" route="r5" depart="36.8"/>
  <vehicle id="veh18" type="car" route="r9" depart="39.5"/>
  <vehicle id="veh19" type="scooter" route="r0" depart="42.6"/>
  <vehicle id="veh20" type="bus" route="r9" depart="43.6"/>
  <vehicle id="veh21" type="scooter" route="r9" depart="48.3"/>
  <vehicle id="veh22" type="car" route="r2" depart="49.7"/>
  <vehicle id="veh23" type="car" route="r10" depart="50.0"/>
  <vehicle id="veh24" type="car" route="r0" depart="50.7"/>
  <vehicle id="veh25" type="scooter" route="r6" depart="54.8"/>
  <vehicle id="veh26" type="car" route="r4" depart="59.2"/>
  <vehicle id="veh27" type="scooter" route="r8" depart="61.2"/>
  <vehicle id="veh28" type="car" route="r10" depart="65.7"/>
  <vehicle id="veh29" type="truck" route="r3" depart="66.7"/>
  <vehicle id="veh30" type="scooter" route="r6" depart="69.1"/>
  <vehicle id="veh31" type="truck" route="r1" depart="73.5"/>
  <vehicle id="veh32" type="car" route="r9" depart="77.7"/>
  <vehicle id="veh33" type="scooter" route="r5" depart="77.9"/>
  <vehicle id="veh34" type="car" route="r4" depart="81.9"/>
  <vehicle id="veh35" type="car" route="r0" depart="82.9"/>
  <vehicle id="veh36" type="car" route="r2" depart="84.1"/>
  <vehicle id="veh37" type="scooter" route="r10" depart="88.3"/>
  <vehicle id="veh38" type="scooter" route="r6" depart="93.2"/>
  <vehicle id="veh39" type="bus" route="r11" depart="95.1"/>
  <vehicle id="veh40" type="car" route="r7" depart="95.5"/>
  <vehicle id="veh41" type="truck" route="r3" depart="95.9"/>
  <vehicle id="veh42" type="car" route="r3" depart="100.2"/>
  <vehicle id="veh43" type="scooter" route="r6" depart="101.7"/>
  <vehicle id="veh44" type="car" route="r10" depart="105.3"/>
  <vehicle id="veh45" type="scooter" route="r6" depart="109.7"/>
  <vehicle id="veh46" type="car" route="r10" depart="113.8"/>
  <vehicle id="veh47" type="car" route="r7" depart="117.5"/>
  <vehicle id="veh48" type="scooter" route="r9" depart="117.9"/>
  <vehicle id="veh49" type="scooter" route="r2" depart="121.4"/>
  <vehicle id="veh50" type="car" route="r4" depart="125.5"/>
  <vehicle id="veh51" type="bus" route="r6" depart="129.4"/>
  <vehicle id="veh52" type="truck" route="r10" depart="130.1"/>
  <vehicle id="veh53" type="bus" route="r4" depart="134.7"/>
  <vehicle id="veh54" type="scooter" route="r5" depart="139.4"/>
  <vehicle id="veh55" type="car" route="r1" depart="141.0"/>
  <vehicle id="veh56" type="truck" route="r7" depart="142.2"/>
  <vehicle id="veh57" type="scooter" route="r0" depart="146.4"/>
  <vehicle id="veh58" type="car" route="r9" depart="151.3"/>
  <vehicle id="veh59" type="bus" route="r4" depart="152.1"/>
  <vehicle id="veh60" type="car" route="r7" depart="152.5"/>
  <vehicle id="veh61" type="bus" route="r1" depart="156.7"/>
  <vehicle id="veh62" type="car" route="r3" depart="161.5"/>
  <vehicle id="veh63" type="bus" route="r11" depart="164.6"/>
  <vehicle id="veh64" type="car" route="r9" depart="165.3"/>
  <vehicle id="veh65" type="car" route="r6" depart="167.5"/>
  <vehicle id="veh66" type="car" route="r6" depart="170.5"/>
  <vehicle id="veh67" type="car" route="r8" depart="173.1"/>
  <vehicle id="veh68" type="car" route="r3" depart="175.2"/>
  <vehicle id="veh69" type="car" route="r8" depart="177.3"/>
  <vehicle id="veh70" type="scooter" route="r9" depart="181.5"/>
  <vehicle id="veh71" type="scooter" route="r0" depart="185.1"/>
  <vehicle id="veh72" type="car" route="r8" depart="188.8"/>
  <vehicle id="veh73" type="car" route="r2" depart="189.6"/>
  <vehicle id="veh74" type="car" route="r10" depart="191.6"/>
  <vehicle id="veh75" type="scooter" route="r10" depart="193.5"/>
  <vehicle id="veh76" type="scooter" route="r5" depart="195.8"/>
  <vehicle id="veh77" type="bus" route="r4" depart="199.8"/>
  <vehicle id="veh78" type="car" route="r3" depart="203.5"/>
  <vehicle id="veh79" type="bus" route="r11" depart="208.2"/>
  <vehicle id="veh80" type="bus" route="r6" depart="211.2"/>
  <vehicle id="veh81" type="car" route="r3" depart="214.0"/>
  <vehicle id="veh82" type="car" route="r10" depart="217.0"/>
  <vehicle id="veh83" type="car" route="r5" depart="218.7"/>
  <vehicle id="veh84" type="car" route="r0" depart="222.8"/>
  <vehicle id="veh85" type="car" route="r10" depart="227.5"/>
  <vehicle id="veh86" type="bus" route="r8" depart="231.6"/>
  <vehicle id="veh87" type="car" route="r7" depart="236.3"/>
  <vehicle id="veh88" type="bus" route="r2" depart="239.2"/>
  <vehicle id="veh89" type="car" route="r5" depart="243.3"/>
  <vehicle id="veh90" type="car" route="r7" depart="244.4"/>
  <vehicle id="veh91" type="bus" route="r1" depart="246.4"/>
  <vehicle id="veh92" type="scooter" route="r6" depart="248.8"/>
  <vehicle id="veh93" type="truck" route="r5" depart="250.3"/>
  <vehicle id="veh94" type="scooter" route="r4" depart="253.0"/>
  <vehicle id="veh95" type="bus" route="r0" depart="254.4"/>
  <vehicle id="veh96" type="car" route="r8" depart="256.5"/>
  <vehicle id="veh97" type="car" route="r11" depart="259.0"/>
  <vehicle id="veh98" type="car" route="r5" depart="262.6"/>
  <vehicle id="veh99" type="truck" route="r8" depart="263.2"/>
  <vehicle id="veh100" type="scooter" route="r7" depart="265.2"/>
  <vehicle id="veh101" type="car" route="r1" depart="266.6"/>
  <vehicle id="veh102" type="bus" route="r7" depart="267.0"/>
  <vehicle id="veh103" type="truck" route="r2" depart="267.2"/>
  <vehicle id="veh104" type="car" route="r11" depart="269.8"/>
  <vehicle id="veh105" type="scooter" route="r2" depart="270.0"/>
  <vehicle id="veh106" type="car" route="r6" depart="272.9"/>
  <vehicle id="veh107" type="truck" route="r2" depart="274.1"/>
  <vehicle id="veh108" type="car" route="r10" depart="276.0"/>
  <vehicle id="veh109" type="car" route="r11" depart="277.3"/>
  <vehicle id="veh110" type="scooter" route="r6" depart="279.8"/>
  <vehicle id="veh111" type="truck" route="r3" depart="279.9"/>
  <vehicle id="veh112" type="car" route="r9" depart="281.5"/>
  <vehicle id="veh113" type="car" route="r2" depart="285.9"/>
  <vehicle id="veh114" type="car" route="r6" depart="289.0"/>
  <vehicle id="veh115" type="scooter" route="r3" depart="289.8"/>
  <vehicle id="veh116" type="car" route="r0" depart="294.7"/>
  <vehicle id="veh117" type="truck" route="r1" depart="298.3"/>
  <vehicle id="veh118" type="car" route="r2" depart="298.8"/>
  <vehicle id="veh119" type="bus" route="r0" depart="303.7"/>
  <vehicle id="veh120" type="scooter" route="r7" depart="306.8"/>
  <vehicle id="veh121" type="car" route="r8" depart="309.9"/>
  <vehicle id="veh122" type="bus" route="r1" depart="310.6"/>
  <vehicle id="veh123" type="car" route="r0" depart="313.8"/>
  <vehicle id="veh124" type="car" route="r1" depart="317.6"/>
  <vehicle id="veh125" type="bus" route="r11" depart="319.2"/>
  <vehicle id="veh126" type="car" route="r1" depart="319.9"/>
  <vehicle id="veh127" type="truck" route="r8" depart="322.7"/>
  <vehicle id="veh128" type="car" route="r10" depart="325.0"/>
  <vehicle id="veh129" type="scooter" route="r9" depart="328.6"/>
  <vehicle id="veh130" type="scooter" route="r10" depart="331.7"/>
  <vehicle id="veh131" type="car" route="r4" depart="335.6"/>
  <vehicle id="veh132" type="car" route="r9" depart="339.9"/>
  <vehicle id="veh133" type="truck" route="r10" depart="342.2"/>
  <vehicle id="veh134" type="car" route="r5" depart="342.6"/>
  <vehicle id="veh135" type="bus" route="r0" depart="345.5"/>
  <vehicle id="veh136" type="car" route="r2" depart="346.3"/>
  <vehicle id="veh137" type="car" route="r2" depart="347.6"/>
  <vehicle id="veh138" type="bus" route="r1" depart="349.7"/>
  <vehicle id="veh139" type="car" route="r8" depart="353.7"/>
  <vehicle id="veh140" type="car" route="r6" depart="358.3"/>
  <vehicle id="veh141" type="truck" route="r1" depart="361.2"/>
  <vehicle id="veh142" type="car" route="r5" depart="364.7"/>
  <vehicle id="veh143" type="bus" route="r10" depart="366.6"/>
  <vehicle id="veh144" type="scooter" route="r9" depart="367.1"/>
  <vehicle id="veh145" type="car" route="r10" depart="369.8"/>
  <vehicle id="veh146" type="bus" route="r7" depart="373.8"/>
  <vehicle id="veh147" type="scooter" route="r9" depart="378.7"/>
  <vehicle id="veh148" type="car" route="r2" depart="379.6"/>
  <vehicle id="veh149" type="bus" route="r3" depart="382.4"/>
  <vehicle id="veh150" type="scooter" route="r9" depart="385.6"/>
  <vehicle id="veh151" type="scooter" route="r5" depart="388.0"/>
  <vehicle id="veh152" type="truck" route="r4" depart="388.2"/>
  <vehicle id="veh153" type="scooter" route="r7" depart="388.5"/>
  <vehicle id="veh154" type="car" route="r9" depart="393.4"/>
  <vehicle id="veh155" type="scooter" route="r1" depart="395.0"/>
  <vehicle id="veh156" type="scooter" route="r11" depart="397.2"/>
  <vehicle id="veh157" type="bus" route="r9" depart="398.3"/>
  <vehicle id="veh158" type="car" route="r10" depart="399.2"/>
  <vehicle id="veh159" type="truck" route="r10" depart="400.8"/>
  <vehicle id="veh160" type="scooter" route="r5" depart="401.8"/>
  <vehicle id="veh161" type="scooter" route="r3" depart="405.2"/>
  <vehicle id="veh162" type="car" route="r0" depart="409.1"/>
  <vehicle id="veh163" type="car" route="r9" depart="412.6"/>
  <vehicle id="veh164" type="car" route="r6" depart="416.0"/>
  <vehicle id="veh165" type="scooter" route="r0" depart="416.6"/>
  <vehicle id="veh166" type="car" route="r7" depart="418.7"/>
  <vehicle id="veh167" type="scooter" route="r8" depart="422.1"/>
  <vehicle id="veh168" type="scooter" route="r2" depart="425.4"/>
  <vehicle id="veh169" type="scooter" route="r2" depart="427.3"/>
  <vehicle id="veh170" type="car" route="r2" depart="429.2"/>
  <vehicle id="veh171" type="car" route="r6" depart="432.2"/>
  <vehicle id="veh172" type="car" route="r2" depart="432.5"/>
  <vehicle id="veh173" type="scooter" route="r8" depart="435.8"/>
  <vehicle id="veh174" type="truck" route="r9" depart="437.8"/>
  <vehicle id="veh175" type="car" route="r8" depart="439.9"/>
  <vehicle id="veh176" type="car" route="r10" depart="442.5"/>
  <vehicle id="veh177" type="car" route="r3" depart="445.9"/>
  <vehicle id="veh178" type="bus" route="r6" depart="446.5"/>
  <vehicle id="veh179" type="scooter" route="r5" depart="451.2"/>
  <vehicle id="veh180" type="scooter" route="r3" depart="455.5"/>
  <vehicle id="veh181" type="bus" route="r11" depart="459.6"/>
  <vehicle id="veh182" type="car" route="r8" depart="460.9"/>
  <vehicle id="veh183" type="scooter" route="r7" depart="465.2"/>
  <vehicle id="veh184" type="bus" route="r5" depart="468.0"/>
  <vehicle id="veh185" type="car" route="r0" depart="472.0"/>
  <vehicle id="veh186" type="car" route="r7" depart="475.7"/>
  <vehicle id="veh187" type="scooter" route="r5" depart="476.6"/>
  <vehicle id="veh188" type="car" route="r5" depart="480.0"/>
  <vehicle id="veh189" type="car" route="r11" depart="481.8"/>
  <vehicle id="veh190" type="bus" route="r9" depart="482.2"/>
  <vehicle id="veh191" type="car" route="r7" depart="482.8"/>
  <vehicle id="veh192" type="car" route="r5" depart="484.2"/>
  <vehicle id="veh193" type="bus" route="r8" depart="487.7"/>
  <vehicle id="veh194" type="car" route="r8" depart="488.8"/>
  <vehicle id="veh195" type="car" route="r3" depart="492.5"/>
  <vehicle id="veh196" type="car" route="r3" depart="497.2"/>
  <vehicle id="veh197" type="bus" route="r7" depart="498.1"/>
  <vehicle id="veh198" type="car" route="r7" depart="501.0"/>
  <vehicle id="veh199" type="scooter" route="r8" depart="505.7"/>
  <vehicle id="veh200" type="bus" route="r10" depart="509.0"/>
  <vehicle id="veh201" type="car" route="r7" depart="509.8"/>
  <vehicle id="veh202" type="car" route="r5" depart="510.5"/>
  <vehicle id="veh203" type="car" route="r8" depart="515.1"/>
  <vehicle id="veh204" type="car" route="r6" depart="517.3"/>
  <vehicle id="veh205" type="bus" route="r10" depart="518.9"/>
  <vehicle id="veh206" type="scooter" route="r11" depart="520.0"/>
  <vehicle id="veh207" type="scooter" route="r8" depart="521.1"/>
  <vehicle id="veh208" type="car" route="r11" depart="521.2"/>
  <vehicle id="veh209" type="scooter" route="r0" depart="522.8"/>
  <vehicle id="veh210" type="car" route="r9" depart="523.9"/>
  <vehicle id="veh211" type="scooter" route="r4" depart="524.0"/>
  <vehicle id="veh212" type="scooter" route="r8" depart="527.4"/>
  <vehicle id="veh213" type="car" route="r7" depart="528.5"/>
  <vehicle id="veh214" type="bus" route="r4" depart="531.2"/>
  <vehicle id="veh215" type="scooter" route="r1" depart="534.7"/>
  <vehicle id="veh216" type="truck" route="r2" depart="536.9"/>
  <vehicle id="veh217" type="truck" route="r3" depart="537.1"/>
  <vehicle id="veh218" type="car" route="r2" depart="540.0"/>
  <vehicle id="veh219" type="bus" route="r3" depart="542.9"/>
  <vehicle id="veh220" type="scooter" route="r1" depart="546.3"/>
  <vehicle id="veh221" type="scooter" route="r8" depart="548.3"/>
  <vehicle id="veh222" type="car" route="r7" depart="552.4"/>
  <vehicle id="veh223" type="bus" route="r1" depart="556.7"/>
  <vehicle id="veh224" type="car" route="r8" depart="561.1"/>
  <vehicle id="veh225" type="car" route="r2" depart="564.8"/>
  <vehicle id="veh226" type="bus" route="r9" depart="567.4"/>
  <vehicle id="veh227" type="bus" route="r8" depart="570.2"/>
  <vehicle id="veh228" type="bus" route="r5" depart="573.0"/>
  <vehicle id="veh229" type="car" route="r0" depart="574.3"/>
  <vehicle id="veh230" type="car" route="r2" depart="578.9"/>
  <vehicle id="veh231" type="bus" route="r10" depart="578.9"/>
  <vehicle id="veh232" type="bus" route="r2" depart="579.9"/>
  <vehicle id="veh233" type="car" route="r5" depart="581.8"/>
  <vehicle id="veh234" type="bus" route="r0" depart="582.4"/>
  <vehicle id="veh235" type="car" route="r2" depart="586.2"/>
  <vehicle id="veh236" type="car" route="r3" depart="587.5"/>
  <vehicle id="veh237" type="car" route="r0" depart="588.9"/>
  <vehicle id="veh238" type="scooter" route="r11" depart="592.0"/>
  <vehicle id="veh239" type="car" route="r10" depart="594.9"/>
  <vehicle id="veh240" type="bus" route="r4" depart="596.8"/>
  <vehicle id="veh241" type="car" route="r8" depart="599.1"/>
  <vehicle id="veh242" type="bus" route="r11" depart="603.8"/>
  <vehicle id="veh243" type="bus" route="r7" depart="606.3"/>
  <vehicle id="veh244" type="scooter" route="r7" depart="608.1"/>
  <vehicle id="veh245" type="car" route="r10" depart="609.8"/>
  <vehicle id="veh246" type="bus" route="r7" depart="614.6"/>
  <vehicle id="veh247" type="car" route="r3" depart="618.6"/>
  <vehicle id="veh248" type="car" route="r10" depart="622.3"/>
  <vehicle id="veh249" type="scooter" route="r4" depart="623.9"/>
  <vehicle id="veh250" type="car" route="r1" depart="626.6"/>
  <vehicle id="veh251" type="car" route="r9" depart="631.5"/>
  <vehicle id="veh252" type="bus" route="r6" depart="631.8"/>
  <vehicle id="veh253" type="bus" route="r0" depart="632.5"/>
  <vehicle id="veh254" type="bus" route="r6" depart="636.1"/>
  <vehicle id="veh255" type="bus" route="r0" depart="638.6"/>
  <vehicle id="veh256" type="scooter" route="r0" depart="641.9"/>
  <vehicle id="veh257" type="bus" route="r1" depart="644.9"/>
  <vehicle id="veh258" type="scooter" route="r5" depart="645.5"/>
  <vehicle id="veh259" type="scooter" route="r2" depart="647.4"/>
  <vehicle id="veh260" type="car" route="r4" depart="647.8"/>
  <vehicle id="veh261" type="car" route="r11" depart="648.7"/>
  <vehicle id="veh262" type="car" route="r11" depart="650.0"/>
  <vehicle id="veh263" type="car" route="r4" depart="651.4"/>
  <vehicle id="veh264" type="car" route="r4" depart="653.0"/>
  <vehicle id="veh265" type="car" route="r3" depart="654.6"/>
  <vehicle id="veh266" type="car" route="r5" depart="657.5"/>
  <vehicle id="veh267" type="scooter" route="r7" depart="659.9"/>
  <vehicle id="veh268" type="car" route="r10" depart="664.4"/>
  <vehicle id="veh269" type="car" route="r7" depart="664.7"/>
  <vehicle id="veh270" type="car" route="r6" depart="665.0"/>
  <vehicle id="veh271" type="bus" route="r2" depart="669.2"/>
  <vehicle id="veh272" type="car" route="r1" depart="671.8"/>
  <vehicle id="veh273" type="scooter" route="r7" depart="674.1"/>
  <vehicle id="veh274" type="car" route="r0" depart="674.8"/>
  <vehicle id="veh275" type="car" route="r4" depart="676.4"/>
  <vehicle id="veh276" type="scooter" route="r6" depart="679.4"/>
  <vehicle id="veh277" type="scooter" route="r2" depart="683.8"/>
  <vehicle id="veh278" type="car" route="r7" depart="685.0"/>
  <vehicle id="veh279" type="bus" route="r11" depart="690.0"/>
  <vehicle id="veh280" type="car" route="r9" depart="691.3"/>
  <vehicle id="veh281" type="scooter" route="r8" depart="695.3"/>
  <vehicle id="veh282" type="car" route="r1" depart="698.0"/>
  <vehicle id="veh283" type="car" route="r10" depart="702.2"/>
  <vehicle id="veh284" type="scooter" route="r2" depart="705.2"/>
  <vehicle id="veh285" type="scooter" route="r0" depart="708.6"/>
  <vehicle id="veh286" type="car" route="r11" depart="711.4"/>
  <vehicle id="veh287" type="scooter" route="r10" depart="712.9"/>
  <vehicle id="veh288" type="truck" route="r4" depart="714.5"/>
  <vehicle id="veh289" type="car" route="r4" depart="715.1"/>
  <vehicle id="veh290" type="car" route="r7" depart="716.6"/>
  <vehicle id="veh291" type="car" route="r6" depart="718.2"/>
  <vehicle id="veh292" type="truck" route="r2" depart="721.8"/>
  <vehicle id="veh293" type="scooter" route="r8" depart="726.5"/>
  <vehicle id="veh294" type="scooter" route="r6" depart="729.3"/>
  <vehicle id="veh295" type="truck" route="r5" depart="732.5"/>
  <vehicle id="veh296" type="car" route="r11" depart="736.7"/>
  <vehicle id="veh297" type="bus" route="r10" depart="740.1"/>
  <vehicle id="veh298" type="car" route="r8" depart="741.1"/>
  <vehicle id="veh299" type="bus" route="r10" depart="743.0"/>
</routes>
