<routes>
  <vType id="car" accel="1.0" decel="4.5" maxSpeed="25" length="5"/>
  <vType id="truck" accel="0.5" decel="3.0" maxSpeed="18" length="12"/>
  <vType id="bus" accel="0.8" decel="3.5" maxSpeed="20" length="10"/>
  <vType id="scooter" accel="1.5" decel="4.0" maxSpeed="30" length="2"/>
  <route id="r0" edges="-north east"/>
  <route id="r1" edges="-north south"/>
  <route id="r2" edges="-north west"/>
  <route id="r3" edges="-east north"/>
  <route id="r4" edges="-east south"/>
  <route id="r5" edges="-east west"/>
  <route id="r6" edges="-south north"/>
  <route id="r7" edges="-south east"/>
  <route id="r8" edges="-south west"/>
  <route id="r9" edges="-west north"/>
  <route id="r10" edges="-west east"/>
  <route id="r11" edges="-west south"/>
  <vehicle id="veh0" type="bus" route="r2" depart="0.0"/>
  <vehicle id="veh1" type="car" route="r1" depart="1.2"/>
  <vehicle id="veh2" type="car" route="r5" depart="1.4"/>
  <vehicle id="veh3" type="car" route="r2" depart="3.2"/>
  <vehicle id="veh4" type="scooter" route="r8" depart="6.8"/>
  <vehicle id="veh5" type="car" route="r10" depart="8.0"/>
  <vehicle id="veh6" type="scooter" route="r1" depart="10.0"/>
  <vehicle id="veh7" type="car" route="r11" depart="11.5"/>
  <vehicle id="veh8" type="truck" route="r6" depart="15.9"/>
  <vehicle id="veh9" type="scooter" route="r9" depart="19.6"/>
  <vehicle id="veh10" type="bus" route="r0" depart="23.7"/>
  <vehicle id="veh11" type="car" route="r1" depart="24.2"/>
  <vehicle id="veh12" type="car" route="r9" depart="24.6"/>
  <vehicle id="veh13" type="car" route="r6" depart="27.0"/>
  <vehicle id="veh14" type="car" route="r8" depart="29.0"/>
  <vehicle id="veh15" type="car" route="r5" depart="30.9"/>
  <vehicle id="veh16" type="car" route="r6" depart="33.0"/>
  <vehicle id="veh17" type="car" route="r0" depart="35.1"/>
  <vehicle id="veh18" type="bus" route="r11" depart="39.9"/>
  <vehicle id="veh19" type="bus" route="r11" depart="41.5"/>
  <vehicle id="veh20" type="car" route="r8" depart="43.0"/>
  <vehicle id="veh21" type="car" route="r1" depart="44.9"/>
  <vehicle id="veh22" type="truck" route="r5" depart="45.1"/>
  <vehicle id="veh23" type="scooter" route="r7" depart="45.6"/>
  <vehicle id="veh24" type="bus" route="r9" depart="47.4"/>
  <vehicle id="veh25" type="car" route="r10" depart="51.4"/>
  <vehicle id="veh26" type="car" route="r3" depart="56.3"/>
  <vehicle id="veh27" type="bus" route="r11" depart="61.3"/>
  <vehicle id="veh28" type="bus" route="r2" depart="63.8"/>
  <vehicle id="veh29" type="bus" route="r7" depart="64.5"/>
  <vehicle id="veh30" type="car" route="r3" depart="66.4"/>
  <vehicle id="veh31" type="bus" route="r10" depart="67.6"/>
  <vehicle id="veh32" type="car" route="r0" depart="68.9"/>
  <vehicle id="veh33" type="scooter" route="r8" depart="72.7"/>
  <vehicle id="veh34" type="truck" route="r8" depart="76.7"/>
  <vehicle id="veh35" type="car" route="r0" depart="80.1"/>
  <vehicle id="veh36" type="car" route="r5" depart="83.9"/>
  <vehicle id="veh37" type="car" route="r10" depart="88.3"/>
  <vehicle id="veh38" type="scooter" route="r2" depart="91.2"/>
  <vehicle id="veh39" type="car" route="r5" depart="95.4"/>
  <vehicle id="veh40" type="car" route="r2" depart="98.9"/>
  <vehicle id="veh41" type="bus" route="r10" depart="102.5"/>
  <vehicle id="veh42" type="car" route="r5" depart="104.4"/>
  <vehicle id="veh43" type="truck" route="r2" depart="105.6"/>
  <vehicle id="veh44" type="car" route="r6" depart="110.3"/>
  <vehicle id="veh45" type="car" route="r0" depart="112.8"/>
  <vehicle id="veh46" type="car" route="r4" depart="113.9"/>
  <vehicle id="veh47" type="car" route="r3" depart="117.1"/>
  <vehicle id="veh48" type="car" route="r8" depart="117.9"/>
  <vehicle id="veh49" type="bus" route="r0" depart="120.6"/>
  <vehicle id="veh50" type="car" route="r1" depart="123.5"/>
  <vehicle id="veh51" type="car" route="r2" depart="126.1"/>
  <vehicle id="veh52" type="scooter" route="r5" depart="127.6"/>
  <vehicle id="veh53" type="scooter" route="r1" depart="129.5"/>
  <vehicle id="veh54" type="car" route="r5" depart="130.8"/>
  <vehicle id="veh55" type="car" route="r8" depart="134.1"/>
  <vehicle id="veh56" type="bus" route="r5" depart="136.8"/>
  <vehicle id="veh57" type="car" route="r10" depart="139.2"/>
  <vehicle id="veh58" type="scooter" route="r8" depart="142.7"/>
  <vehicle id="veh59" type="car" route="r6" depart="146.6"/>
  <vehicle id="veh60" type="car" route="r7" depart="148.5"/>
  <vehicle id="veh61" type="truck" route="r7" depart="150.9"/>
  <vehicle id="veh62" type="car" route="r0" depart="155.8"/>
  <vehicle id="veh63" type="scooter" route="r11" depart="160.4"/>
  <vehicle id="veh64" type="bus" route="r4" depart="162.3"/>
  <vehicle id="veh65" type="car" route="r8" depart="166.6"/>
  <vehicle id="veh66" type="truck" route="r10" depart="170.6"/>
  <vehicle id="veh67" type="car" route="r1" depart="172.1"/>
  <vehicle id="veh68" type="car" route="r7" depart="176.1"/>
  <vehicle id="veh69" type="car" route="r10" depart="179.8"/>
  <vehicle id="veh70" type="scooter" route="r8" depart="181.6"/>
  <vehicle id="veh71" type="scooter" route="r4" depart="182.2"/>
  <vehicle id="veh72" type="car" route="r9" depart="186.8"/>
  <vehicle id="veh73" type="car" route="r10" depart="191.6"/>
  <vehicle id="veh74" type="car" route="r9" depart="193.2"/>
  <vehicle id="veh75" type="scooter" route="r6" depart="196.0"/>
  <vehicle id="veh76" type="truck" route="r7" depart="200.1"/>
  <vehicle id="veh77" type="car" route="r8" depart="200.2"/>
  <vehicle id="veh78" type="scooter" route="r5" depart="200.8"/>
  <vehicle id="veh79" type="car" route="r9" depart="205.1"/>
  <vehicle id="veh80" type="truck" route="r5" depart="207.5"/>
  <vehicle id="veh81" type="bus" route="r11" depart="208.3"/>
  <vehicle id="veh82" type="car" route="r9" depart="210.6"/>
  <vehicle id="veh83" type="car" route="r9" depart="212.0"/>
  <vehicle id="veh84" type="car" route="r4" depart="216.4"/>
  <vehicle id="veh85" type="car" route="r3" depart="217.5"/>
  <vehicle id="veh86" type="car" route="r0" depart="221.6"/>
  <vehicle id="veh87" type="bus" route="r11" depart="226.5"/>
  <vehicle id="veh88" type="car" route="r4" depart="228.9"/>
  <vehicle id="veh89" type="bus" route="r0" depart="232.7"/>
  <vehicle id="veh90" type="car" route="r1" depart="235.4"/>
  <vehicle id="veh91" type="bus" route="r9" depart="235.5"/>
  <vehicle id="veh92" type="bus" route="r5" depart="237.4"/>
  <vehicle id="veh93" type="bus" route="r11" depart="237.4"/>
  <vehicle id="veh94" type="scooter" route="r11" depart="238.0"/>
  <vehicle id="veh95" type="truck" route="r7" depart="242.3"/>
  <vehicle id="veh96" type="car" route="r0" depart="245.4"/>
  <vehicle id="veh97" type="car" route="r2" depart="245.9"/>
  <vehicle id="veh98" type="car" route="r5" depart="247.6"/>
  <vehicle id="veh99" type="bus" route="r4" depart="248.1"/>
  <vehicle id="veh100" type="truck" route="r2" depart="248.6"/>
  <vehicle id="veh101" type="car" route="r1" depart="253.1"/>
  <vehicle id="veh102" type="car" route="r11" depart="257.7"/>
  <vehicle id="veh103" type="truck" route="r5" depart="261.1"/>
  <vehicle id="veh104" type="bus" route="r0" depart="264.4"/>
  <vehicle id="veh105" type="scooter" route="r10" depart="267.2"/>
  <vehicle id="veh106" type="car" route="r10" depart="268.5"/>
  <vehicle id="veh107" type="car" route="r5" depart="269.1"/>
  <vehicle id="veh108" type="car" route="r8" depart="272.3"/>
  <vehicle id="veh109" type="car" route="r4" depart="276.1"/>
  <vehicle id="veh110" type="car" route="r8" depart="281.0"/>
  <vehicle id="veh111" type="scooter" route="r5" depart="283.8"/>
  <vehicle id="veh112" type="car" route="r10" depart="284.2"/>
  <vehicle id="veh113" type="car" route="r11" depart="287.9"/>
  <vehicle id="veh114" type="scooter" route="r10" depart="289.0"/>
  <vehicle id="veh115" type="car" route="r1" depart="293.9"/>
  <vehicle id="veh116" type="car" route="r9" depart="294.1"/>
  <vehicle id="veh117" type="car" route="r2" depart="295.8"/>
  <vehicle id="veh118" type="bus" route="r10" depart="300.7"/>
  <vehicle id="veh119" type="car" route="r0" depart="305.1"/>
  <vehicle id="veh120" type="truck" route="r11" depart="308.4"/>
  <vehicle id="veh121" type="car" route="r9" depart="310.1"/>
  <vehicle id="veh122" type="car" route="r8" depart="314.0"/>
  <vehicle id="veh123" type="car" route="r5" depart="318.1"/>
  <vehicle id="veh124" type="car" route="r8" depart="322.2"/>
  <vehicle id="veh125" type="car" route="r5" depart="325.1"/>
  <vehicle id="veh126" type="truck" route="r3" depart="327.6"/>
  <vehicle id="veh127" type="car" route="r5" depart="332.5"/>
  <vehicle id="veh128" type="car" route="r4" depart="334.5"/>
  <vehicle id="veh129" type="car" route="r5" depart="335.8"/>
  <vehicle id="veh130" type="truck" route="r7" depart="340.4"/>
  <vehicle id="veh131" type="scooter" route="r2" depart="342.7"/>
  <vehicle id="veh132" type="car" route="r6" depart="344.3"/>
  <vehicle id="veh133" type="bus" route="r6" depart="348.8"/>
  <vehicle id="veh134" type="truck" route="r1" depart="353.3"/>
  <vehicle id="veh135" type="bus" route="r3" depart="358.1"/>
  <vehicle id="veh136" type="scooter" route="r0" depart="359.0"/>
  <vehicle id="veh137" type="bus" route="r5" depart="362.2"/>
  <vehicle id="veh138" type="car" route="r8" depart="364.2"/>
  <vehicle id="veh139" type="car" route="r4" depart="366.3"/>
  <vehicle id="veh140" type="car" route="r7" depart="370.2"/>
  <vehicle id="veh141" type="scooter" route="r7" depart="370.8"/>
  <vehicle id="veh142" type="car" route="r1" depart="371.0"/>
  <vehicle id="veh143" type="scooter" route="r4" depart="374.7"/>
  <vehicle id="veh144" type="truck" route="r8" depart="378.6"/>
  <vehicle id="veh145" type="scooter" route="r4" depart="382.5"/>
  <vehicle id="veh146" type="car" route="r6" depart="383.1"/>
  <vehicle id="veh147" type="car" route="r2" depart="385.6"/>
  <vehicle id="veh148" type="bus" route="r7" depart="388.2"/>
  <vehicle id="veh149" type="bus" route="r3" depart="388.3"/>
  <vehicle id="veh150" type="car" route="r10" depart="389.0"/>
  <vehicle id="veh151" type="car" route="r4" depart="391.1"/>
  <vehicle id="veh152" type="scooter" route="r3" depart="391.7"/>
  <vehicle id="veh153" type="scooter" route="r2" depart="392.5"/>
  <vehicle id="veh154" type="scooter" route="r2" depart="397.4"/>
  <vehicle id="veh155" type="scooter" route="r10" depart="397.5"/>
  <vehicle id="veh156" type="bus" route="r7" depart="398.8"/>
  <vehicle id="veh157" type="car" route="r2" depart="400.2"/>
  <vehicle id="veh158" type="scooter" route="r8" depart="403.5"/>
  <vehicle id="veh159" type="car" route="r0" depart="407.6"/>
  <vehicle id="veh160" type="car" route="r9" depart="408.2"/>
  <vehicle id="veh161" type="car" route="r1" depart="412.3"/>
  <vehicle id="veh162" type="bus" route="r11" depart="414.8"/>
  <vehicle id="veh163" type="scooter" route="r3" depart="415.6"/>
  <vehicle id="veh164" type="car" route="r7" depart="416.4"/>
  <vehicle id="veh165" type="car" route="r0" depart="421.1"/>
  <vehicle id="veh166" type="scooter" route="r4" depart="422.1"/>
  <vehicle id="veh167" type="bus" route="r0" depart="425.5"/>
  <vehicle id="veh168" type="car" route="r11" depart="429.3"/>
  <vehicle id="veh169" type="bus" route="r7" depart="430.7"/>
  <vehicle id="veh170" type="car" route="r3" depart="431.1"/>
  <vehicle id="veh171" type="car" route="r5" depart="432.6"/>
  <vehicle id="veh172" type="bus" route="r7" depart="436.8"/>
  <vehicle id="veh173" type="car" route="r9" depart="441.3"/>
  <vehicle id="veh174" type="car" route="r2" depart="443.2"/>
  <vehicle id="veh175" type="car" route="r5" depart="443.9"/>
  <vehicle id="veh176" type="scooter" route="r1" depart="445.0"/>
  <vehicle id="veh177" type="car" route="r0" depart="446.1"/>
  <vehicle id="veh178" type="car" route="r2" depart="447.8"/>
  <vehicle id="veh179" type="car" route="r8" depart="449.7"/>
  <vehicle id="veh180" type="bus" route="r0" depart="449.7"/>
  <vehicle id="veh181" type="scooter" route="r10" depart="450.4"/>
  <vehicle id="veh182" type="car" route="r4" depart="451.0"/>
  <vehicle id="veh183" type="truck" route="r8" depart="453.6"/>
  <vehicle id="veh184" type="car" route="r8" depart="454.4"/>
  <vehicle id="veh185" type="bus" route="r1" depart="455.0"/>
  <vehicle id="veh186" type="car" route="r3" depart="455.7"/>
  <vehicle id="veh187" type="car" route="r10" depart="457.3"/>
  <vehicle id="veh188" type="car" route="r2" depart="457.7"/>
  <vehicle id="veh189" type="bus" route="r8" depart="458.1"/>
  <vehicle id="veh190" type="car" route="r11" depart="460.7"/>
  <vehicle id="veh191" type="truck" route="r0" depart="462.1"/>
  <vehicle id="veh192" type="truck" route="r3" depart="466.3"/>
  <vehicle id="veh193" type="car" route="r11" depart="471.0"/>
  <vehicle id="veh194" type="car" route="r0" depart="471.5"/>
  <vehicle id="veh195" type="scooter" route="r8" depart="476.2"/>
  <vehicle id="veh196" type="car" route="r4" depart="477.5"/>
  <vehicle id="veh197" type="bus" route="r3" depart="478.2"/>
  <vehicle id="veh198" type="scooter" route="r1" depart="480.4"/>
  <vehicle id="veh199" type="bus" route="r3" depart="485.1"/>
  <vehicle id="veh200" type="truck" route="r5" depart="489.6"/>
  <vehicle id="veh201" type="scooter" route="r2" depart="493.7"/>
  <vehicle id="veh202" type="truck" route="r3" depart="494.0"/>
  <vehicle id="veh203" type="scooter" route="r5" depart="494.5"/>
  <vehicle id="veh204" type="truck" route="r6" depart="496.9"/>
  <vehicle id="veh205" type="car" route="r3" depart="498.4"/>
  <vehicle id="veh206" type="car" route="r9" depart="502.6"/>
  <vehicle id="veh207" type="bus" route="r6" depart="502.9"/>
  <vehicle id="veh208" type="car" route="r0" depart="505.8"/>
  <vehicle id="veh209" type="bus" route="r7" depart="507.0"/>
  <vehicle id="veh210" type="bus" route="r11" depart="511.9"/>
  <vehicle id="veh211" type="truck" route="r4" depart="512.1"/>
  <vehicle id="veh212" type="car" route="r4" depart="515.6"/>
  <vehicle id="veh213" type="bus" route="r10" depart="518.9"/>
  <vehicle id="veh214" type="bus" route="r5" depart="519.3"/>
  <vehicle id="veh215" type="car" route="r0" depart="521.1"/>
  <vehicle id="veh216" type="bus" route="r3" depart="524.8"/>
  <vehicle id="veh217" type="car" route="r4" depart="528.0"/>
  <vehicle id="veh218" type="truck" route="r6" depart="531.2"/>
  <vehicle id="veh219" type="bus" route="r7" depart="535.3"/>
  <vehicle id="veh220" type="scooter" route="r1" depart="539.6"/>
  <vehicle id="veh221" type="car" route="r9" depart="541.8"/>
  <vehicle id="veh222" type="scooter" route="r2" depart="546.8"/>
  <vehicle id="veh223" type="car" route="r0" depart="547.9"/>
  <vehicle id="veh224" type="car" route="r1" depart="552.8"/>
  <vehicle id="veh225" type="car" route="r11" depart="556.3"/>
  <vehicle id="veh226" type="bus" route="r11" depart="559.4"/>
  <vehicle id="veh227" type="scooter" route="r6" depart="563.7"/>
  <vehicle id="veh228" type="car" route="r2" depart="567.4"/>
  <vehicle id="veh229" type="bus" route="r4" depart="568.1"/>
  <vehicle id="veh230" type="car" route="r0" depart="572.3"/>
  <vehicle id="veh231" type="truck" route="r0" depart="573.4"/>
  <vehicle id="veh232" type="bus" route="r3" depart="578.0"/>
  <vehicle id="veh233" type="scooter" route="r7" depart="581.1"/>
  <vehicle id="veh234" type="scooter" route="r10" depart="584.5"/>
  <vehicle id="veh235" type="car" route="r4" depart="588.6"/>
  <vehicle id="veh236" type="car" route="r2" depart="591.8"/>
  <vehicle id="veh237" type="bus" route="r7" depart="594.9"/>
  <vehicle id="veh238" type="truck" route="r0" depart="599.1"/>
  <vehicle id="veh239" type="scooter" route="r0" depart="599.4"/>
  <vehicle id="veh240" type="scooter" route="r3" depart="603.0"/>
  <vehicle id="veh241" type="scooter" route="r9" depart="603.6"/>
  <vehicle id="veh242" type="truck" route="r2" depart="603.9"/>
  <vehicle id="veh243" type="scooter" route="r6" depart="607.7"/>
  <vehicle id="veh244" type="car" route="r10" depart="612.4"/>
  <vehicle id="veh245" type="car" route="r9" depart="615.7"/>
  <vehicle id="veh246" type="car" route="r4" depart="618.8"/>
  <vehicle id="veh247" type="bus" route="r6" depart="619.2"/>
  <vehicle id="veh248" type="car" route="r8" depart="621.7"/>
  <vehicle id="veh249" type="truck" route="r7" depart="625.9"/>
  <vehicle id="veh250" type="car" route="r3" depart="627.7"/>
  <vehicle id="veh251" type="bus" route="r0" depart="630.2"/>
  <vehicle id="veh252" type="car" route="r6" depart="630.6"/>
  <vehicle id="veh253" type="car" route="r6" depart="631.5"/>
  <vehicle id="veh254" type="car" route="r9" depart="635.9"/>
  <vehicle id="veh255" type="car" route="r7" depart="639.5"/>
  <vehicle id="veh256" type="car" route="r6" depart="641.7"/>
  <vehicle id="veh257" type="car" route="r2" depart="643.1"/>
  <vehicle id="veh258" type="car" route="r9" depart="644.9"/>
  <vehicle id="veh259" type="car" route="r4" depart="647.5"/>
  <vehicle id="veh260" type="scooter" route="r5" depart="647.9"/>
  <vehicle id="veh261" type="car" route="r2" depart="650.5"/>
  <vehicle id="veh262" type="car" route="r5" depart="652.1"/>
  <vehicle id="veh263" type="bus" route="r7" depart="655.2"/>
  <vehicle id="veh264" type="scooter" route="r10" depart="659.3"/>
  <vehicle id="veh265" type="car" route="r6" depart="661.9"/>
  <vehicle id="veh266" type="car" route="r9" depart="663.6"/>
  <vehicle id="veh267" type="car" route="r3" depart="667.4"/>
  <vehicle id="veh268" type="scooter" route="r10" depart="668.9"/>
  <vehicle id="veh269" type="car" route="r7" depart="669.0"/>
  <vehicle id="veh270" type="scooter" route="r11" depart="673.7"/>
  <vehicle id="veh271" type="scooter" route="r4" depart="678.1"/>
  <vehicle id="veh272" type="bus" route="r5" depart="679.4"/>
  <vehicle id="veh273" type="car" route="r3" depart="683.3"/>
  <vehicle id="veh274" type="bus" route="r9" depart="685.1"/>
  <vehicle id="veh275" type="bus" route="r0" depart="688.6"/>
  <vehicle id="veh276" type="scooter" route="r1" depart="690.9"/>
  <vehicle id="veh277" type="bus" route="r4" depart="693.4"/>
  <vehicle id="veh278" type="scooter" route="r11" depart="693.6"/>
  <vehicle id="veh279" type="car" route="r4" depart="694.6"/>
  <vehicle id="veh280" type="bus" route="r8" depart="695.1"/>
  <vehicle id="veh281" type="car" route="r7" depart="699.5"/>
  <vehicle id="veh282" type="car" route="r8" depart="703.5"/>
  <vehicle id="veh283" type="car" route="r5" depart="706.6"/>
  <vehicle id="veh284" type="bus" route="r6" depart="710.2"/>
  <vehicle id="veh285" type="scooter" route="r2" depart="710.7"/>
  <vehicle id="veh286" type="truck" route="r8" depart="713.4"/>
  <vehicle id="veh287" type="car" route="r1" depart="717.4"/>
  <vehicle id="veh288" type="car" route="r9" depart="720.6"/>
  <vehicle id="veh289" type="scooter" route="r2" depart="722.5"/>
  <vehicle id="veh290" type="truck" route="r5" depart="725.9"/>
  <vehicle id="veh291" type="bus" route="r2" depart="730.3"/>
  <vehicle id="veh292" type="bus" route="r9" depart="731.3"/>
  <vehicle id="veh293" type="bus" route="r5" depart="732.8"/>
  <vehicle id="veh294" type="bus" route="r4" depart="735.7"/>
  <vehicle id="veh295" type="scooter" route="r4" depart="738.6"/>
  <vehicle id="veh296" type="car" route="r8" depart="739.9"/>
  <vehicle id="veh297" type="truck" route="r4" depart="744.4"/>
  <vehicle id="veh298" type="bus" route="r8" depart="749.4"/>
  <vehicle id="veh299" type="scooter" route="r6" depart="752.1"/>
  <vehicle id="veh300" type="bus" route="r9" depart="754.6"/>
  <vehicle id="veh301" type="car" route="r9" depart="758.0"/>
  <vehicle id="veh302" type="bus" route="r11" depart="762.5"/>
  <vehicle id="veh303" type="car" route="r4" depart="765.1"/>
  <vehicle id="veh304" type="truck" route="r7" depart="765.6"/>
  <vehicle id="veh305" type="car" route="r6" depart="769.7"/>
  <vehicle id="veh306" type="scooter" route="r0" depart="770.0"/>
  <vehicle id="veh307" type="car" route="r9" depart="770.5"/>
  <vehicle id="veh308" type="car" route="r7" depart="771.1"/>
  <vehicle id="veh309" type="scooter" route="r3" depart="772.7"/>
  <vehicle id="veh310" type="car" route="r9" depart="773.6"/>
  <vehicle id="veh311" type="car" route="r9" depart="777.2"/>
  <vehicle id="veh312" type="car" route="r3" depart="779.9"/>
  <vehicle id="veh313" type="bus" route="r11" depart="784.1"/>
  <vehicle id="veh314" type="bus" route="r0" depart="784.7"/>
  <vehicle id="veh315" type="car" route="r2" depart="789.5"/>
  <vehicle id="veh316" type="scooter" route="r3" depart="790.9"/>
  <vehicle id="veh317" type="car" route="r10" depart="793.9"/>
  <vehicle id="veh318" type="truck" route="r10" depart="797.5"/>
  <vehicle id="veh319" type="car" route="r9" depart="802.1"/>
  <vehicle id="veh320" type="truck" route="r8" depart="805.2"/>
  <vehicle id="veh321" type="scooter" route="r0" depart="808.6"/>
  <vehicle id="veh322" type="car" route="r5" depart="811.3"/>
  <vehicle id="veh323" type="scooter" route="r6" depart="814.2"/>
  <vehicle id="veh324" type="car" route="r7" depart="816.5"/>
  <vehicle id="veh325" type="car" route="r5" depart="816.7"/>
  <vehicle id="veh326" type="car" route="r10" depart="819.7"/>
  <vehicle id="veh327" type="car" route="r6" depart="821.3"/>
  <vehicle id="veh328" type="car" route="r3" depart="825.2"/>
  <vehicle id="veh329" type="car" route="r4" depart="826.3"/>
  <vehicle id="veh330" type="scooter" route="r11" depart="826.5"/>
  <vehicle id="veh331" type="scooter" route="r10" depart="827.5"/>
  <vehicle id="veh332" type="car" route="r10" depart="829.5"/>
  <vehicle id="veh333" type="car" route="r6" depart="833.1"/>
  <vehicle id="veh334" type="bus" route="r2" depart="833.1"/>
  <vehicle id="veh335" type="car" route="r3" depart="834.2"/>
  <vehicle id="veh336" type="car" route="r7" depart="835.0"/>
  <vehicle id="veh337" type="car" route="r3" depart="838.8"/>
  <vehicle id="veh338" type="car" route="r9" depart="843.4"/>
  <vehicle id="veh339" type="truck" route="r1" depart="847.8"/>
  <vehicle id="veh340" type="car" route="r11" depart="848.5"/>
  <vehicle id="veh341" type="car" route="r6" depart="849.9"/>
  <vehicle id="veh342" type="car" route="r9" depart="852.4"/>
  <vehicle id="veh343" type="car" route="r1" depart="854.6"/>
  <vehicle id="veh344" type="car" route="r9" depart="858.0"/>
  <vehicle id="veh345" type="scooter" route="r6" depart="858.4"/>
  <vehicle id="veh346" type="car" route="r0" depart="859.9"/>
  <vehicle id="veh347" type="car" route="r11" depart="861.0"/>
  <vehicle id="veh348" type="bus" route="r3" depart="864.4"/>
  <vehicle id="veh349" type="car" route="r1" depart="866.5"/>
  <vehicle id="veh350" type="car" route="r1" depart="870.0"/>
  <vehicle id="veh351" type="truck" route="r11" depart="874.3"/>
  <vehicle id="veh352" type="car" route="r1" depart="877.3"/>
  <vehicle id="veh353" type="car" route="r3" depart="878.1"/>
  <vehicle id="veh354" type="car" route="r8" depart="880.9"/>
  <vehicle id="veh355" type="car" route="r10" depart="882.7"/>
  <vehicle id="veh356" type="car" route="r8" depart="885.2"/>
  <vehicle id="veh357" type="car" route="r11" depart="886.2"/>
  <vehicle id="veh358" type="scooter" route="r0" depart="889.8"/>
  <vehicle id="veh359" type="bus" route="r2" depart="891.6"/>
  <vehicle id="veh360" type="car" route="r1" depart="893.7"/>
  <vehicle id="veh361" type="bus" route="r4" depart="895.3"/>
  <vehicle id="veh362" type="truck" route="r7" depart="899.1"/>
  <vehicle id="veh363" type="truck" route="r1" depart="902.1"/>
  <vehicle id="veh364" type="car" route="r9" depart="903.9"/>
  <vehicle id="veh365" type="car" route="r7" depart="905.2"/>
  <vehicle id="veh366" type="car" route="r3" depart="908.0"/>
  <vehicle id="veh367" type="car" route="r9" depart="912.8"/>
  <vehicle id="veh368" type="bus" route="r5" depart="915.5"/>
  <vehicle id="veh369" type="truck" route="r4" depart="920.0"/>
  <vehicle id="veh370" type="truck" route="r2" depart="920.5"/>
  <vehicle id="veh371" type="car" route="r9" depart="921.6"/>
  <vehicle id="veh372" type="bus" route="r2" depart="922.7"/>
  <vehicle id="veh373" type="scooter" route="r2" depart="924.1"/>
  <vehicle id="veh374" type="car" route="r7" depart="925.4"/>
  <vehicle id="veh375" type="car" route="r10" depart="928.3"/>
  <vehicle id="veh376" type="scooter" route="r3" depart="930.1"/>
  <vehicle id="veh377" type="scooter" route="r0" depart="934.7"/>
  <vehicle id="veh378" type="car" route="r0" depart="935.8"/>
  <vehicle id="veh379" type="car" route="r10" depart="938.4"/>
  <vehicle id="veh380" type="scooter" route="r6" depart="941.7"/>
  <vehicle id="veh381" type="bus" route="r0" depart="945.5"/>
  <vehicle id="veh382" type="car" route="r4" depart="947.7"/>
  <vehicle id="veh383" type="scooter" route="r6" depart="948.3"/>
  <vehicle id="veh384" type="bus" route="r7" depart="951.5"/>
  <vehicle id="veh385" type="car" route="r0" depart="953.8"/>
  <vehicle id="veh386" type="car" route="r11" depart="954.4"/>
  <vehicle id="veh387" type="bus" route="r9" depart="958.7"/>
  <vehicle id="veh388" type="car" route="r9" depart="961.3"/>
  <vehicle id="veh389" type="car" route="r9" depart="965.6"/>
  <vehicle id="veh390" type="bus" route="r11" depart="966.2"/>
  <vehicle id="veh391" type="car" route="r10" depart="970.7"/>
  <vehicle id="veh392" type="car" route="r7" depart="974.2"/>
  <vehicle id="veh393" type="bus" route="r6" depart="975.0"/>
  <vehicle id="veh394" type="car" route="r3" depart="979.7"/>
  <vehicle id="veh395" type="car" route="r8" depart="984.2"/>
  <vehicle id="veh396" type="car" route="r4" depart="987.0"/>
  <vehicle id="veh397" type="car" route="r4" depart="989.6"/>
  <vehicle id="veh398" type="car" route="r11" depart="992.3"/>
  <vehicle id="veh399" type="car" route="r0" depart="996.3"/>
  <vehicle id="veh400" type="car" route="r6" depart="998.4"/>
  <vehicle id="veh401" type="car" route="r2" depart="998.6"/>
  <vehicle id="veh402" type="car" route="r7" depart="1003.1"/>
  <vehicle id="veh403" type="bus" route="r11" depart="1006.6"/>
  <vehicle id="veh404" type="car" route="r2" depart="1008.0"/>
  <vehicle id="veh405" type="bus" route="r0" depart="1009.0"/>
  <vehicle id="veh406" type="bus" route="r3" depart="1013.8"/>
  <vehicle id="veh407" type="bus" route="r5" depart="1018.1"/>
  <vehicle id="veh408" type="bus" route="r10" depart="1022.3"/>
  <vehicle id="veh409" type="car" route="r0" depart="1022.5"/>
  <vehicle id="veh410" type="car" route="r0" depart="1026.3"/>
  <vehicle id="veh411" type="car" route="r2" depart="1029.5"/>
  <vehicle id="veh412" type="car" route="r9" depart="1033.7"/>
  <vehicle id="veh413" type="car" route="r6" depart="1034.1"/>
  <vehicle id="veh414" type="scooter" route="r4" depart="1036.2"/>
  <vehicle id="veh415" type="car" route="r7" depart="1036.9"/>
  <vehicle id="veh416" type="scooter" route="r6" depart="1039.2"/>
  <vehicle id="veh417" type="car" route="r0" depart="1039.4"/>
  <vehicle id="veh418" type="car" route="r5" depart="1043.7"/>
  <vehicle id="veh419" type="car" route="r7" depart="1046.6"/>
  <vehicle id="veh420" type="bus" route="r9" depart="1046.8"/>
  <vehicle id="veh421" type="bus" route="r5" depart="1047.1"/>
  <vehicle id="veh422" type="car" route="r6" depart="1049.2"/>
  <vehicle id="veh423" type="truck" route="r8" depart="1050.5"/>
  <vehicle id="veh424" type="bus" route="r5" depart="1053.9"/>
  <vehicle id="veh425" type="car" route="r3" depart="1058.1"/>
  <vehicle id="veh426" type="car" route="r5" depart="1063.0"/>
  <vehicle id="veh427" type="scooter" route="r7" depart="1064.9"/>
  <vehicle id="veh428" type="scooter" route="r4" depart="1068.4"/>
  <vehicle id="veh429" type="car" route="r0" depart="1072.8"/>
  <vehicle id="veh430" type="car" route="r1" depart="1074.0"/>
  <vehicle id="veh431" type="truck" route="r2" depart="1077.6"/>
  <vehicle id="veh432" type="bus" route="r0" depart="1080.1"/>
  <vehicle id="veh433" type="bus" route="r9" depart="1083.1"/>
  <vehicle id="veh434" type="scooter" route="r1" depart="1084.8"/>
  <vehicle id="veh435" type="scooter" route="r3" depart="1087.9"/>
  <vehicle id="veh436" type="bus" route="r5" depart="1091.4"/>
  <vehicle id="veh437" type="scooter" route="r8" depart="1092.1"/>
  <vehicle id="veh438" type="truck" route="r0" depart="1095.7"/>
  <vehicle id="veh439" type="bus" route="r10" depart="1099.1"/>
  <vehicle id="veh440" type="car" route="r11" depart="1103.6"/>
  <vehicle id="veh441" type="truck" route="r4" depart="1106.6"/>
  <vehicle id="veh442" type="car" route="r3" depart="1107.8"/>
  <vehicle id="veh443" type="car" route="r5" depart="1112.2"/>
  <vehicle id="veh444" type="bus" route="r8" depart="1113.5"/>
  <vehicle id="veh445" type="car" route="r10" depart="1116.0"/>
  <vehicle id="veh446" type="car" route="r6" depart="1117.1"/>
  <vehicle id="veh447" type="car" route="r6" depart="1120.1"/>
  <vehicle id="veh448" type="car" route="r11" depart="1124.8"/>
  <vehicle id="veh449" type="scooter" route="r9" depart="1127.9"/>
  <vehicle id="veh450" type="car" route="r10" depart="1128.1"/>
  <vehicle id="veh451" type="car" route="r7" depart="1130.8"/>
  <vehicle id="veh452" type="bus" route="r3" depart="1134.6"/>
  <vehicle id="veh453" type="car" route="r2" depart="1136.7"/>
  <vehicle id="veh454" type="bus" route="r9" depart="1138.8"/>
  <vehicle id="veh455" type="car" route="r6" depart="1139.7"/>
  <vehicle id="veh456" type="car" route="r0" depart="1141.1"/>
  <vehicle id="veh457" type="car" route="r7" depart="1143.8"/>
  <vehicle id="veh458" type="bus" route="r7" depart="1145.9"/>
  <vehicle id="veh459" type="car" route="r10" depart="1146.0"/>
  <vehicle id="veh460" type="bus" route="r10" depart="1150.1"/>
  <vehicle id="veh461" type="bus" route="r1" depart="1150.3"/>
  <vehicle id="veh462" type="car" route="r4" depart="1150.9"/>
  <vehicle id="veh463" type="scooter" route="r6" depart="1151.2"/>
  <vehicle id="veh464" type="bus" route="r6" depart="1152.8"/>