<?xml version="1.0" encoding="UTF-8"?>

<!-- generated on 2025-06-19 14:23:18 by Eclipse SUMO sumo Version 1.23.1
-->

<sumoConfiguration xmlns:xsi="http://www.w3.org/2001/XMLSchema-instance" xsi:noNamespaceSchemaLocation="http://sumo.dlr.de/xsd/sumoConfiguration.xsd">

    <input>
        <net-file value="trafficinter.net.xml"/>
        <route-files value="code%20for%20rl/random_routes.rou.xml"/>
    </input>

</sumoConfiguration>
