<routes>
  <vType id="car" accel="1.0" decel="4.5" maxSpeed="25" length="5"/>
  <vType id="truck" accel="0.5" decel="3.0" maxSpeed="18" length="12"/>
  <vType id="bus" accel="0.8" decel="3.5" maxSpeed="20" length="10"/>
  <vType id="scooter" accel="1.5" decel="4.0" maxSpeed="30" length="2"/>
  <route id="r0" edges="-north east"/>
  <route id="r1" edges="-north south"/>
  <route id="r2" edges="-north west"/>
  <route id="r3" edges="-east north"/>
  <route id="r4" edges="-east south"/>
  <route id="r5" edges="-east west"/>
  <route id="r6" edges="-south north"/>
  <route id="r7" edges="-south east"/>
  <route id="r8" edges="-south west"/>
  <route id="r9" edges="-west north"/>
  <route id="r10" edges="-west east"/>
  <route id="r11" edges="-west south"/>
  <vehicle id="veh0" type="scooter" route="r4" depart="0.0"/>
  <vehicle id="veh1" type="bus" route="r8" depart="1.5"/>
  <vehicle id="veh2" type="truck" route="r5" depart="5.1"/>
  <vehicle id="veh3" type="bus" route="r4" depart="9.7"/>
  <vehicle id="veh4" type="truck" route="r5" depart="11.3"/>
  <vehicle id="veh5" type="truck" route="r0" depart="15.0"/>
  <vehicle id="veh6" type="car" route="r8" depart="17.7"/>
  <vehicle id="veh7" type="scooter" route="r9" depart="21.9"/>
  <vehicle id="veh8" type="car" route="r8" depart="24.3"/>
  <vehicle id="veh9" type="car" route="r8" depart="26.4"/>
  <vehicle id="veh10" type="bus" route="r1" depart="30.9"/>
  <vehicle id="veh11" type="car" route="r2" depart="32.1"/>
  <vehicle id="veh12" type="bus" route="r7" depart="33.8"/>
  <vehicle id="veh13" type="car" route="r0" depart="38.3"/>
  <vehicle id="veh14" type="scooter" route="r10" depart="40.6"/>
  <vehicle id="veh15" type="car" route="r2" depart="43.6"/>
  <vehicle id="veh16" type="scooter" route="r4" depart="46.5"/>
  <vehicle id="veh17" type="car" route="r4" depart="48.1"/>
  <vehicle id="veh18" type="scooter" route="r10" depart="48.2"/>
  <vehicle id="veh19" type="car" route="r7" depart="50.2"/>
  <vehicle id="veh20" type="car" route="r4" depart="53.4"/>
  <vehicle id="veh21" type="car" route="r1" depart="57.1"/>
  <vehicle id="veh22" type="truck" route="r1" depart="61.9"/>
  <vehicle id="veh23" type="car" route="r2" depart="62.7"/>
  <vehicle id="veh24" type="bus" route="r10" depart="64.6"/>
  <vehicle id="veh25" type="car" route="r8" depart="67.1"/>
  <vehicle id="veh26" type="car" route="r2" depart="67.6"/>
  <vehicle id="veh27" type="car" route="r9" depart="70.9"/>
  <vehicle id="veh28" type="scooter" route="r8" depart="75.0"/>
  <vehicle id="veh29" type="car" route="r5" depart="76.4"/>
  <vehicle id="veh30" type="car" route="r7" depart="79.3"/>
  <vehicle id="veh31" type="scooter" route="r11" depart="81.2"/>
  <vehicle id="veh32" type="truck" route="r11" depart="84.3"/>
  <vehicle id="veh33" type="car" route="r8" depart="87.3"/>
  <vehicle id="veh34" type="bus" route="r7" depart="87.7"/>
  <vehicle id="veh35" type="car" route="r2" depart="91.9"/>
  <vehicle id="veh36" type="bus" route="r9" depart="92.2"/>
  <vehicle id="veh37" type="car" route="r5" depart="95.7"/>
  <vehicle id="veh38" type="car" route="r1" depart="95.8"/>
  <vehicle id="veh39" type="bus" route="r9" depart="97.3"/>
  <vehicle id="veh40" type="car" route="r7" depart="99.9"/>
  <vehicle id="veh41" type="truck" route="r4" depart="103.2"/>
  <vehicle id="veh42" type="bus" route="r9" depart="105.9"/>
  <vehicle id="veh43" type="truck" route="r9" depart="108.6"/>
  <vehicle id="veh44" type="scooter" route="r3" depart="109.9"/>
  <vehicle id="veh45" type="car" route="r0" depart="114.6"/>
  <vehicle id="veh46" type="car" route="r7" depart="119.3"/>
  <vehicle id="veh47" type="car" route="r4" depart="120.1"/>
  <vehicle id="veh48" type="bus" route="r3" depart="124.2"/>
  <vehicle id="veh49" type="car" route="r10" depart="124.3"/>
  <vehicle id="veh50" type="scooter" route="r2" depart="125.4"/>
  <vehicle id="veh51" type="car" route="r11" depart="129.7"/>
  <vehicle id="veh52" type="scooter" route="r9" depart="133.9"/>
  <vehicle id="veh53" type="bus" route="r9" depart="135.1"/>
  <vehicle id="veh54" type="car" route="r2" depart="138.2"/>
  <vehicle id="veh55" type="car" route="r2" depart="143.0"/>
  <vehicle id="veh56" type="car" route="r7" depart="145.4"/>
  <vehicle id="veh57" type="bus" route="r6" depart="146.3"/>
  <vehicle id="veh58" type="car" route="r10" depart="149.3"/>
  <vehicle id="veh59" type="scooter" route="r6" depart="151.4"/>
  <vehicle id="veh60" type="car" route="r11" depart="151.5"/>
  <vehicle id="veh61" type="car" route="r3" depart="155.6"/>
  <vehicle id="veh62" type="bus" route="r5" depart="157.8"/>
  <vehicle id="veh63" type="bus" route="r1" depart="161.1"/>
  <vehicle id="veh64" type="car" route="r4" depart="164.4"/>
  <vehicle id="veh65" type="car" route="r3" depart="165.0"/>
  <vehicle id="veh66" type="scooter" route="r7" depart="168.1"/>
  <vehicle id="veh67" type="scooter" route="r11" depart="168.5"/>
  <vehicle id="veh68" type="car" route="r5" depart="172.0"/>
  <vehicle id="veh69" type="bus" route="r8" depart="173.1"/>
  <vehicle id="veh70" type="bus" route="r4" depart="174.9"/>
  <vehicle id="veh71" type="scooter" route="r4" depart="178.2"/>
  <vehicle id="veh72" type="car" route="r1" depart="179.2"/>
  <vehicle id="veh73" type="car" route="r10" depart="184.1"/>
  <vehicle id="veh74" type="bus" route="r11" depart="187.0"/>
  <vehicle id="veh75" type="bus" route="r11" depart="189.8"/>
  <vehicle id="veh76" type="scooter" route="r5" depart="190.9"/>
  <vehicle id="veh77" type="car" route="r9" depart="192.9"/>
  <vehicle id="veh78" type="car" route="r7" depart="197.7"/>
  <vehicle id="veh79" type="truck" route="r9" depart="201.0"/>
  <vehicle id="veh80" type="car" route="r1" depart="202.0"/>
  <vehicle id="veh81" type="bus" route="r3" depart="205.0"/>
  <vehicle id="veh82" type="bus" route="r1" depart="207.2"/>
  <vehicle id="veh83" type="car" route="r4" depart="210.7"/>
  <vehicle id="veh84" type="bus" route="r5" depart="212.2"/>
  <vehicle id="veh85" type="car" route="r9" depart="215.4"/>
  <vehicle id="veh86" type="car" route="r4" depart="219.4"/>
  <vehicle id="veh87" type="bus" route="r5" depart="222.8"/>
  <vehicle id="veh88" type="car" route="r0" depart="227.5"/>
  <vehicle id="veh89" type="car" route="r7" depart="227.7"/>
  <vehicle id="veh90" type="scooter" route="r10" depart="232.4"/>
  <vehicle id="veh91" type="bus" route="r3" depart="235.3"/>
  <vehicle id="veh92" type="bus" route="r6" depart="238.4"/>
  <vehicle id="veh93" type="car" route="r0" depart="241.4"/>
  <vehicle id="veh94" type="truck" route="r9" depart="244.4"/>
  <vehicle id="veh95" type="car" route="r3" depart="244.6"/>
  <vehicle id="veh96" type="truck" route="r0" depart="247.4"/>
  <vehicle id="veh97" type="bus" route="r9" depart="247.6"/>
  <vehicle id="veh98" type="bus" route="r10" depart="249.1"/>
  <vehicle id="veh99" type="car" route="r0" depart="251.7"/>
  <vehicle id="veh100" type="scooter" route="r11" depart="253.0"/>
  <vehicle id="veh101" type="scooter" route="r0" depart="255.4"/>
  <vehicle id="veh102" type="car" route="r4" depart="258.4"/>
  <vehicle id="veh103" type="truck" route="r4" depart="260.7"/>
  <vehicle id="veh104" type="car" route="r4" depart="265.6"/>
  <vehicle id="veh105" type="bus" route="r11" depart="267.1"/>
  <vehicle id="veh106" type="bus" route="r1" depart="270.8"/>
  <vehicle id="veh107" type="car" route="r4" depart="271.7"/>
  <vehicle id="veh108" type="car" route="r2" depart="273.6"/>
  <vehicle id="veh109" type="car" route="r7" depart="278.3"/>
  <vehicle id="veh110" type="car" route="r8" depart="280.4"/>
  <vehicle id="veh111" type="truck" route="r5" depart="283.3"/>
  <vehicle id="veh112" type="car" route="r1" depart="284.7"/>
  <vehicle id="veh113" type="bus" route="r0" depart="286.4"/>
  <vehicle id="veh114" type="car" route="r11" depart="286.8"/>
  <vehicle id="veh115" type="truck" route="r6" depart="291.1"/>
  <vehicle id="veh116" type="scooter" route="r3" depart="294.6"/>
  <vehicle id="veh117" type="car" route="r7" depart="297.0"/>
  <vehicle id="veh118" type="bus" route="r1" depart="300.1"/>
  <vehicle id="veh119" type="truck" route="r11" depart="300.6"/>
  <vehicle id="veh120" type="scooter" route="r11" depart="304.6"/>
  <vehicle id="veh121" type="bus" route="r0" depart="308.0"/>
  <vehicle id="veh122" type="scooter" route="r4" depart="311.3"/>
  <vehicle id="veh123" type="truck" route="r1" depart="312.4"/>
  <vehicle id="veh124" type="car" route="r2" depart="314.6"/>
  <vehicle id="veh125" type="bus" route="r9" depart="315.0"/>
  <vehicle id="veh126" type="scooter" route="r1" depart="318.2"/>
  <vehicle id="veh127" type="car" route="r9" depart="321.9"/>
  <vehicle id="veh128" type="scooter" route="r10" depart="326.8"/>
  <vehicle id="veh129" type="car" route="r5" depart="330.4"/>
  <vehicle id="veh130" type="car" route="r5" depart="331.6"/>
  <vehicle id="veh131" type="car" route="r0" depart="333.6"/>
  <vehicle id="veh132" type="car" route="r10" depart="334.1"/>
  <vehicle id="veh133" type="bus" route="r6" depart="338.0"/>
  <vehicle id="veh134" type="car" route="r11" depart="338.4"/>
  <vehicle id="veh135" type="bus" route="r6" depart="342.4"/>
  <vehicle id="veh136" type="car" route="r9" depart="346.2"/>
  <vehicle id="veh137" type="bus" route="r10" depart="350.9"/>
  <vehicle id="veh138" type="bus" route="r9" depart="355.2"/>
  <vehicle id="veh139" type="car" route="r6" depart="359.4"/>
  <vehicle id="veh140" type="car" route="r7" depart="362.4"/>
  <vehicle id="veh141" type="scooter" route="r0" depart="365.2"/>
  <vehicle id="veh142" type="car" route="r10" depart="368.5"/>
  <vehicle id="veh143" type="scooter" route="r9" depart="369.6"/>
  <vehicle id="veh144" type="car" route="r0" depart="372.5"/>
  <vehicle id="veh145" type="car" route="r5" depart="377.0"/>
  <vehicle id="veh146" type="bus" route="r6" depart="380.6"/>
  <vehicle id="veh147" type="bus" route="r5" depart="383.9"/>
  <vehicle id="veh148" type="car" route="r8" depart="386.1"/>
  <vehicle id="veh149" type="scooter" route="r2" depart="388.3"/>
  <vehicle id="veh150" type="bus" route="r0" depart="388.8"/>
  <vehicle id="veh151" type="car" route="r5" depart="393.3"/>
  <vehicle id="veh152" type="car" route="r2" depart="393.7"/>
  <vehicle id="veh153" type="scooter" route="r1" depart="397.5"/>
  <vehicle id="veh154" type="car" route="r7" depart="400.5"/>
  <vehicle id="veh155" type="bus" route="r9" depart="401.9"/>
  <vehicle id="veh156" type="truck" route="r5" depart="404.9"/>
  <vehicle id="veh157" type="scooter" route="r7" depart="408.3"/>
  <vehicle id="veh158" type="bus" route="r2" depart="409.5"/>
  <vehicle id="veh159" type="car" route="r7" depart="413.5"/>
  <vehicle id="veh160" type="car" route="r1" depart="416.7"/>
  <vehicle id="veh161" type="car" route="r1" depart="418.3"/>
  <vehicle id="veh162" type="scooter" route="r9" depart="421.2"/>
  <vehicle id="veh163" type="car" route="r2" depart="423.7"/>
  <vehicle id="veh164" type="car" route="r6" depart="426.8"/>
  <vehicle id="veh165" type="car" route="r1" depart="431.5"/>
  <vehicle id="veh166" type="car" route="r2" depart="432.6"/>
  <vehicle id="veh167" type="bus" route="r11" depart="435.1"/>
  <vehicle id="veh168" type="car" route="r9" depart="437.8"/>
  <vehicle id="veh169" type="truck" route="r4" depart="437.9"/>
  <vehicle id="veh170" type="scooter" route="r5" depart="440.7"/>
  <vehicle id="veh171" type="car" route="r3" depart="441.5"/>
  <vehicle id="veh172" type="scooter" route="r1" depart="443.8"/>
  <vehicle id="veh173" type="bus" route="r6" depart="448.4"/>
  <vehicle id="veh174" type="bus" route="r8" depart="450.7"/>
  <vehicle id="veh175" type="car" route="r11" depart="453.5"/>
  <vehicle id="veh176" type="scooter" route="r2" depart="453.8"/>
  <vehicle id="veh177" type="bus" route="r2" depart="458.1"/>
  <vehicle id="veh178" type="scooter" route="r6" depart="459.5"/>
  <vehicle id="veh179" type="car" route="r5" depart="463.3"/>
  <vehicle id="veh180" type="bus" route="r9" depart="463.5"/>
  <vehicle id="veh181" type="truck" route="r6" depart="466.1"/>
  <vehicle id="veh182" type="bus" route="r8" depart="466.6"/>
  <vehicle id="veh183" type="car" route="r11" depart="468.9"/>
  <vehicle id="veh184" type="scooter" route="r3" depart="471.8"/>
  <vehicle id="veh185" type="car" route="r5" depart="473.8"/>
  <vehicle id="veh186" type="car" route="r4" depart="477.8"/>
  <vehicle id="veh187" type="bus" route="r5" depart="482.4"/>
  <vehicle id="veh188" type="scooter" route="r7" depart="482.9"/>
  <vehicle id="veh189" type="bus" route="r9" depart="486.6"/>
  <vehicle id="veh190" type="car" route="r3" depart="490.7"/>
  <vehicle id="veh191" type="car" route="r10" depart="494.7"/>
  <vehicle id="veh192" type="car" route="r7" depart="498.8"/>
  <vehicle id="veh193" type="scooter" route="r1" depart="503.6"/>
  <vehicle id="veh194" type="car" route="r6" depart="506.8"/>
  <vehicle id="veh195" type="scooter" route="r6" depart="506.9"/>
  <vehicle id="veh196" type="car" route="r4" depart="507.9"/>
  <vehicle id="veh197" type="scooter" route="r2" depart="511.5"/>
  <vehicle id="veh198" type="bus" route="r5" depart="513.0"/>
  <vehicle id="veh199" type="car" route="r3" depart="515.3"/>
  <vehicle id="veh200" type="car" route="r0" depart="515.9"/>
  <vehicle id="veh201" type="scooter" route="r1" depart="516.7"/>
  <vehicle id="veh202" type="car" route="r2" depart="521.0"/>
  <vehicle id="veh203" type="bus" route="r8" depart="524.0"/>
  <vehicle id="veh204" type="scooter" route="r4" depart="528.9"/>
  <vehicle id="veh205" type="car" route="r3" depart="532.7"/>
  <vehicle id="veh206" type="car" route="r3" depart="533.4"/>
  <vehicle id="veh207" type="bus" route="r8" depart="534.4"/>
  <vehicle id="veh208" type="car" route="r11" depart="536.5"/>
  <vehicle id="veh209" type="scooter" route="r6" depart="540.7"/>
  <vehicle id="veh210" type="car" route="r8" depart="543.9"/>
  <vehicle id="veh211" type="car" route="r7" depart="546.4"/>
  <vehicle id="veh212" type="car" route="r1" depart="547.6"/>
  <vehicle id="veh213" type="bus" route="r7" depart="549.5"/>
  <vehicle id="veh214" type="scooter" route="r4" depart="554.2"/>
  <vehicle id="veh215" type="car" route="r7" depart="559.0"/>
  <vehicle id="veh216" type="truck" route="r6" depart="559.5"/>
  <vehicle id="veh217" type="car" route="r4" depart="561.0"/>
  <vehicle id="veh218" type="car" route="r1" depart="563.4"/>
  <vehicle id="veh219" type="car" route="r6" depart="565.3"/>
  <vehicle id="veh220" type="car" route="r10" depart="566.5"/>
  <vehicle id="veh221" type="car" route="r7" depart="568.6"/>
  <vehicle id="veh222" type="scooter" route="r11" depart="569.5"/>
  <vehicle id="veh223" type="truck" route="r0" depart="571.5"/>
  <vehicle id="veh224" type="scooter" route="r7" depart="572.0"/>
  <vehicle id="veh225" type="scooter" route="r9" depart="576.4"/>
  <vehicle id="veh226" type="car" route="r3" depart="580.6"/>
  <vehicle id="veh227" type="car" route="r11" depart="582.3"/>
  <vehicle id="veh228" type="truck" route="r4" depart="584.4"/>
  <vehicle id="veh229" type="car" route="r10" depart="585.3"/>
  <vehicle id="veh230" type="car" route="r11" depart="588.4"/>
  <vehicle id="veh231" type="car" route="r9" depart="593.3"/>
  <vehicle id="veh232" type="bus" route="r9" depart="596.0"/>
  <vehicle id="veh233" type="scooter" route="r5" depart="599.8"/>
  <vehicle id="veh234" type="scooter" route="r1" depart="601.7"/>
  <vehicle id="veh235" type="scooter" route="r9" depart="606.1"/>
  <vehicle id="veh236" type="bus" route="r8" depart="609.7"/>
  <vehicle id="veh237" type="scooter" route="r9" depart="611.7"/>
  <vehicle id="veh238" type="car" route="r1" depart="616.2"/>
  <vehicle id="veh239" type="car" route="r1" depart="619.8"/>
  <vehicle id="veh240" type="car" route="r0" depart="623.2"/>
  <vehicle id="veh241" type="scooter" route="r4" depart="625.4"/>
  <vehicle id="veh242" type="car" route="r2" depart="627.8"/>
  <vehicle id="veh243" type="bus" route="r5" depart="632.5"/>
  <vehicle id="veh244" type="car" route="r8" depart="632.9"/>
  <vehicle id="veh245" type="bus" route="r9" depart="637.6"/>
  <vehicle id="veh246" type="car" route="r4" depart="638.5"/>
  <vehicle id="veh247" type="scooter" route="r6" depart="642.3"/>
  <vehicle id="veh248" type="car" route="r8" depart="643.4"/>
  <vehicle id="veh249" type="car" route="r7" depart="647.0"/>
  <vehicle id="veh250" type="bus" route="r3" depart="650.1"/>
  <vehicle id="veh251" type="bus" route="r0" depart="650.7"/>
  <vehicle id="veh252" type="car" route="r10" depart="653.4"/>
  <vehicle id="veh253" type="car" route="r3" depart="658.2"/>
  <vehicle id="veh254" type="car" route="r6" depart="660.7"/>
  <vehicle id="veh255" type="truck" route="r1" depart="662.0"/>
  <vehicle id="veh256" type="bus" route="r0" depart="666.8"/>
  <vehicle id="veh257" type="scooter" route="r4" depart="667.7"/>
  <vehicle id="veh258" type="bus" route="r10" depart="669.8"/>
  <vehicle id="veh259" type="car" route="r3" depart="672.2"/>
  <vehicle id="veh260" type="car" route="r3" depart="672.7"/>
  <vehicle id="veh261" type="scooter" route="r4" depart="674.0"/>
  <vehicle id="veh262" type="scooter" route="r5" depart="677.4"/>
  <vehicle id="veh263" type="bus" route="r11" depart="679.5"/>
  <vehicle id="veh264" type="scooter" route="r7" depart="682.1"/>
  <vehicle id="veh265" type="bus" route="r6" depart="684.2"/>
  <vehicle id="veh266" type="truck" route="r3" depart="687.4"/>
  <vehicle id="veh267" type="bus" route="r5" depart="691.0"/>
  <vehicle id="veh268" type="car" route="r0" depart="692.5"/>
  <vehicle id="veh269" type="scooter" route="r8" depart="694.5"/>
  <vehicle id="veh270" type="car" route="r4" depart="697.0"/>
  <vehicle id="veh271" type="truck" route="r8" depart="700.2"/>
  <vehicle id="veh272" type="truck" route="r9" depart="703.1"/>
  <vehicle id="veh273" type="car" route="r7" depart="706.2"/>
  <vehicle id="veh274" type="car" route="r2" depart="709.0"/>
  <vehicle id="veh275" type="car" route="r6" depart="710.5"/>
  <vehicle id="veh276" type="scooter" route="r11" depart="711.1"/>
  <vehicle id="veh277" type="car" route="r0" depart="714.3"/>
  <vehicle id="veh278" type="bus" route="r3" depart="716.0"/>
  <vehicle id="veh279" type="scooter" route="r0" depart="718.9"/>
  <vehicle id="veh280" type="scooter" route="r4" depart="720.3"/>
  <vehicle id="veh281" type="scooter" route="r5" depart="721.8"/>
  <vehicle id="veh282" type="car" route="r0" depart="722.1"/>
  <vehicle id="veh283" type="car" route="r1" depart="723.0"/>
  <vehicle id="veh284" type="scooter" route="r3" depart="725.9"/>
  <vehicle id="veh285" type="car" route="r2" depart="727.6"/>
  <vehicle id="veh286" type="truck" route="r5" depart="731.3"/>
  <vehicle id="veh287" type="car" route="r8" depart="735.7"/>
  <vehicle id="veh288" type="car" route="r4" depart="739.8"/>
  <vehicle id="veh289" type="car" route="r5" depart="744.0"/>
  <vehicle id="veh290" type="bus" route="r2" depart="748.3"/>
  <vehicle id="veh291" type="car" route="r8" depart="750.3"/>
  <vehicle id="veh292" type="bus" route="r4" depart="751.6"/>
  <vehicle id="veh293" type="scooter" route="r6" depart="754.1"/>
  <vehicle id="veh294" type="bus" route="r7" depart="758.9"/>
  <vehicle id="veh295" type="truck" route="r2" depart="762.2"/>
  <vehicle id="veh296" type="bus" route="r11" depart="764.2"/>
  <vehicle id="veh297" type="scooter" route="r8" depart="767.7"/>
  <vehicle id="veh298" type="scooter" route="r1" depart="769.5"/>
  <vehicle id="veh299" type="car" route="r10" depart="773.1"/>
  <vehicle id="veh300" type="car" route="r5" depart="776.9"/>
  <vehicle id="veh301" type="car" route="r3" depart="777.1"/>
  <vehicle id="veh302" type="car" route="r6" depart="779.1"/>
  <vehicle id="veh303" type="bus" route="r10" depart="783.0"/>
  <vehicle id="veh304" type="scooter" route="r10" depart="783.4"/>
  <vehicle id="veh305" type="car" route="r4" depart="785.9"/>
  <vehicle id="veh306" type="car" route="r9" depart="788.7"/>
  <vehicle id="veh307" type="bus" route="r0" depart="793.0"/>
  <vehicle id="veh308" type="car" route="r0" depart="798.0"/>
  <vehicle id="veh309" type="bus" route="r10" depart="801.6"/>
  <vehicle id="veh310" type="scooter" route="r3" depart="804.1"/>
  <vehicle id="veh311" type="car" route="r9" depart="805.1"/>
  <vehicle id="veh312" type="car" route="r3" depart="809.4"/>
  <vehicle id="veh313" type="car" route="r5" depart="813.8"/>
  <vehicle id="veh314" type="car" route="r0" depart="816.5"/>
  <vehicle id="veh315" type="truck" route="r11" depart="821.4"/>
  <vehicle id="veh316" type="scooter" route="r7" depart="826.3"/>
  <vehicle id="veh317" type="bus" route="r3" depart="826.7"/>
  <vehicle id="veh318" type="truck" route="r11" depart="827.1"/>
  <vehicle id="veh319" type="bus" route="r1" depart="830.4"/>
  <vehicle id="veh320" type="car" route="r9" depart="834.9"/>
  <vehicle id="veh321" type="car" route="r11" depart="836.9"/>
  <vehicle id="veh322" type="bus" route="r5" depart="841.8"/>
  <vehicle id="veh323" type="car" route="r11" depart="843.6"/>
  <vehicle id="veh324" type="truck" route="r1" depart="848.3"/>
  <vehicle id="veh325" type="scooter" route="r10" depart="853.0"/>
  <vehicle id="veh326" type="scooter" route="r5" depart="854.3"/>
  <vehicle id="veh327" type="car" route="r6" depart="857.7"/>
  <vehicle id="veh328" type="scooter" route="r7" depart="858.6"/>
  <vehicle id="veh329" type="bus" route="r6" depart="863.0"/>
  <vehicle id="veh330" type="bus" route="r4" depart="864.9"/>
  <vehicle id="veh331" type="car" route="r9" depart="866.1"/>
  <vehicle id="veh332" type="scooter" route="r11" depart="870.2"/>
  <vehicle id="veh333" type="scooter" route="r11" depart="871.6"/>
  <vehicle id="veh334" type="truck" route="r5" depart="874.2"/>
  <vehicle id="veh335" type="car" route="r4" depart="878.8"/>
  <vehicle id="veh336" type="scooter" route="r9" depart="883.2"/>
  <vehicle id="veh337" type="car" route="r1" depart="884.3"/>
  <vehicle id="veh338" type="car" route="r2" depart="888.3"/>
  <vehicle id="veh339" type="bus" route="r4" depart="889.8"/>
  <vehicle id="veh340" type="car" route="r4" depart="890.5"/>
  <vehicle id="veh341" type="scooter" route="r6" depart="892.0"/>
  <vehicle id="veh342" type="bus" route="r2" depart="895.2"/>
  <vehicle id="veh343" type="truck" route="r3" depart="895.5"/>
  <vehicle id="veh344" type="bus" route="r5" depart="896.2"/>
  <vehicle id="veh345" type="car" route="r8" depart="896.8"/>
  <vehicle id="veh346" type="scooter" route="r3" depart="897.8"/>
  <vehicle id="veh347" type="scooter" route="r11" depart="902.7"/>
  <vehicle id="veh348" type="scooter" route="r11" depart="902.8"/>
  <vehicle id="veh349" type="car" route="r2" depart="906.3"/>
  <vehicle id="veh350" type="scooter" route="r1" depart="906.5"/>
  <vehicle id="veh351" type="car" route="r4" depart="909.0"/>
  <vehicle id="veh352" type="car" route="r6" depart="910.6"/>
  <vehicle id="veh353" type="scooter" route="r7" depart="911.8"/>
  <vehicle id="veh354" type="scooter" route="r9" depart="915.7"/>
  <vehicle id="veh355" type="scooter" route="r0" depart="916.4"/>
  <vehicle id="veh356" type="car" route="r9" depart="917.5"/>
  <vehicle id="veh357" type="car" route="r0" depart="921.0"/>
  <vehicle id="veh358" type="bus" route="r10" depart="922.6"/>
  <vehicle id="veh359" type="car" route="r4" depart="927.2"/>
  <vehicle id="veh360" type="scooter" route="r3" depart="928.5"/>
  <vehicle id="veh361" type="car" route="r1" depart="930.5"/>
  <vehicle id="veh362" type="truck" route="r10" depart="934.1"/>
  <vehicle id="veh363" type="car" route="r2" depart="934.9"/>
  <vehicle id="veh364" type="scooter" route="r1" depart="939.8"/>
  <vehicle id="veh365" type="scooter" route="r9" depart="942.0"/>
  <vehicle id="veh366" type="car" route="r11" depart="943.4"/>
  <vehicle id="veh367" type="scooter" route="r2" depart="945.0"/>
  <vehicle id="veh368" type="car" route="r0" depart="947.9"/>
  <vehicle id="veh369" type="car" route="r7" depart="950.8"/>
  <vehicle id="veh370" type="bus" route="r1" depart="954.6"/>
  <vehicle id="veh371" type="car" route="r3" depart="958.0"/>
  <vehicle id="veh372" type="bus" route="r0" depart="960.9"/>
  <vehicle id="veh373" type="scooter" route="r3" depart="964.8"/>
  <vehicle id="veh374" type="car" route="r8" depart="969.2"/>
  <vehicle id="veh375" type="car" route="r1" depart="970.9"/>
  <vehicle id="veh376" type="scooter" route="r9" depart="973.8"/>
  <vehicle id="veh377" type="car" route="r6" depart="975.8"/>
  <vehicle id="veh378" type="car" route="r3" depart="976.2"/>
  <vehicle id="veh379" type="car" route="r5" depart="978.8"/>
  <vehicle id="veh380" type="car" route="r7" depart="981.6"/>
  <vehicle id="veh381" type="car" route="r10" depart="986.4"/>
  <vehicle id="veh382" type="bus" route="r6" depart="988.1"/>
  <vehicle id="veh383" type="car" route="r2" depart="988.8"/>
  <vehicle id="veh384" type="car" route="r10" depart="992.4"/>
  <vehicle id="veh385" type="bus" route="r9" depart="995.8"/>
  <vehicle id="veh386" type="scooter" route="r1" depart="999.4"/>
  <vehicle id="veh387" type="car" route="r7" depart="1003.1"/>
  <vehicle id="veh388" type="bus" route="r3" depart="1003.4"/>
  <vehicle id="veh389" type="bus" route="r9" depart="1004.6"/>
  <vehicle id="veh390" type="bus" route="r9" depart="1009.0"/>
  <vehicle id="veh391" type="truck" route="r6" depart="1012.9"/>
  <vehicle id="veh392" type="car" route="r4" depart="1014.6"/>
  <vehicle id="veh393" type="truck" route="r7" depart="1018.4"/>
  <vehicle id="veh394" type="scooter" route="r6" depart="1020.6"/>
  <vehicle id="veh395" type="bus" route="r4" depart="1023.1"/>
  <vehicle id="veh396" type="car" route="r7" depart="1023.2"/>
  <vehicle id="veh397" type="car" route="r0" depart="1027.7"/>
  <vehicle id="veh398" type="car" route="r2" depart="1030.5"/>
  <vehicle id="veh399" type="car" route="r2" depart="1030.7"/>
  <vehicle id="veh400" type="bus" route="r7" depart="1033.4"/>
  <vehicle id="veh401" type="truck" route="r7" depart="1037.5"/>
  <vehicle id="veh402" type="car" route="r11" depart="1042.3"/>
  <vehicle id="veh403" type="scooter" route="r4" depart="1042.4"/>
  <vehicle id="veh404" type="bus" route="r7" depart="1046.3"/>
  <vehicle id="veh405" type="car" route="r5" depart="1047.9"/>
  <vehicle id="veh406" type="scooter" route="r5" depart="1052.6"/>
  <vehicle id="veh407" type="scooter" route="r3" depart="1055.3"/>
  <vehicle id="veh408" type="car" route="r2" depart="1057.2"/>
  <vehicle id="veh409" type="truck" route="r4" depart="1058.8"/>
  <vehicle id="veh410" type="bus" route="r11" depart="1063.5"/>
  <vehicle id="veh411" type="truck" route="r8" depart="1064.4"/>
  <vehicle id="veh412" type="car" route="r1" depart="1066.5"/>
  <vehicle id="veh413" type="car" route="r8" depart="1066.5"/>
  <vehicle id="veh414" type="car" route="r11" depart="1070.9"/>
  <vehicle id="veh415" type="scooter" route="r1" depart="1075.0"/>
  <vehicle id="veh416" type="car" route="r9" depart="1075.3"/>
  <vehicle id="veh417" type="car" route="r11" depart="1076.7"/>
  <vehicle id="veh418" type="car" route="r1" depart="1081.6"/>
  <vehicle id="veh419" type="scooter" route="r5" depart="1082.4"/>
  <vehicle id="veh420" type="bus" route="r0" depart="1084.9"/>
  <vehicle id="veh421" type="bus" route="r3" depart="1088.0"/>
  <vehicle id="veh422" type="bus" route="r2" depart="1090.9"/>
  <vehicle id="veh423" type="scooter" route="r3" depart="1092.9"/>
  <vehicle id="veh424" type="truck" route="r3" depart="1093.1"/>
  <vehicle id="veh425" type="truck" route="r2" depart="1096.5"/>
  <vehicle id="veh426" type="car" route="r0" depart="1099.5"/>
  <vehicle id="veh427" type="car" route="r8" depart="1102.1"/>
  <vehicle id="veh428" type="truck" route="r3" depart="1107.0"/>
  <vehicle id="veh429" type="scooter" route="r9" depart="1110.1"/>
  <vehicle id="veh430" type="scooter" route="r0" depart="1114.4"/>
  <vehicle id="veh431" type="bus" route="r2" depart="1117.7"/>
  <vehicle id="veh432" type="truck" route="r11" depart="1122.0"/>
  <vehicle id="veh433" type="car" route="r4" depart="1125.4"/>
  <vehicle id="veh434" type="bus" route="r4" depart="1128.7"/>
  <vehicle id="veh435" type="car" route="r3" depart="1129.1"/>
  <vehicle id="veh436" type="bus" route="r4" depart="1130.7"/>
  <vehicle id="veh437" type="bus" route="r3" depart="1134.8"/>
  <vehicle id="veh438" type="car" route="r7" depart="1136.5"/>
  <vehicle id="veh439" type="car" route="r8" depart="1137.7"/>
  <vehicle id="veh440" type="scooter" route="r4" depart="1141.9"/>
  <vehicle id="veh441" type="truck" route="r3" depart="1144.0"/>
  <vehicle id="veh442" type="car" route="r3" depart="1144.6"/>
  <vehicle id="veh443" type="car" route="r2" depart="1146.2"/>
  <vehicle id="veh444" type="car" route="r10" depart="1149.1"/>
  <vehicle id="veh445" type="truck" route="r3" depart="1150.9"/>
  <vehicle id="veh446" type="scooter" route="r11" depart="1152.8"/>
  <vehicle id="veh447" type="scooter" route="r1" depart="1153.8"/>
  <vehicle id="veh448" type="car" route="r2" depart="1157.6"/>
  <vehicle id="veh449" type="car" route="r6" depart="1159.7"/>
  <vehicle id="veh450" type="car" route="r4" depart="1161.9"/>
  <vehicle id="veh451" type="bus" route="r10" depart="1164.8"/>
  <vehicle id="veh452" type="car" route="r5" depart="1166.1"/>
  <vehicle id="veh453" type="bus" route="r10" depart="1167.9"/>
  <vehicle id="veh454" type="truck" route="r6" depart="1172.4"/>
  <vehicle id="veh455" type="scooter" route="r7" depart="1174.2"/>
  <vehicle id="veh456" type="truck" route="r3" depart="1174.9"/>
  <vehicle id="veh457" type="car" route="r7" depart="1175.1"/>
  <vehicle id="veh458" type="bus" route="r9" depart="1176.3"/>
  <vehicle id="veh459" type="truck" route="r2" depart="1179.5"/>
  <vehicle id="veh460" type="car" route="r10" depart="1181.1"/>
  <vehicle id="veh461" type="car" route="r7" depart="1182.8"/>
  <vehicle id="veh462" type="car" route="r7" depart="1187.4"/>