<routes>
  <vType id="car" accel="1.0" decel="4.5" maxSpeed="25" length="5"/>
  <vType id="truck" accel="0.5" decel="3.0" maxSpeed="18" length="12"/>
  <vType id="bus" accel="0.8" decel="3.5" maxSpeed="20" length="10"/>
  <vType id="scooter" accel="1.5" decel="4.0" maxSpeed="30" length="2"/>
  <route id="r0" edges="-north east"/>
  <route id="r1" edges="-north south"/>
  <route id="r2" edges="-north west"/>
  <route id="r3" edges="-east north"/>
  <route id="r4" edges="-east south"/>
  <route id="r5" edges="-east west"/>
  <route id="r6" edges="-south north"/>
  <route id="r7" edges="-south east"/>
  <route id="r8" edges="-south west"/>
  <route id="r9" edges="-west north"/>
  <route id="r10" edges="-west east"/>
  <route id="r11" edges="-west south"/>
  <vehicle id="veh0" type="car" route="r8" depart="0.0"/>
  <vehicle id="veh1" type="truck" route="r11" depart="2.3"/>
  <vehicle id="veh2" type="car" route="r1" depart="6.8"/>
  <vehicle id="veh3" type="bus" route="r8" depart="11.3"/>
  <vehicle id="veh4" type="truck" route="r9" depart="16.0"/>
  <vehicle id="veh5" type="car" route="r9" depart="20.7"/>
  <vehicle id="veh6" type="car" route="r6" depart="21.5"/>
  <vehicle id="veh7" type="car" route="r0" depart="23.7"/>
  <vehicle id="veh8" type="car" route="r0" depart="28.5"/>
  <vehicle id="veh9" type="scooter" route="r10" depart="28.7"/>
  <vehicle id="veh10" type="scooter" route="r4" depart="31.8"/>
  <vehicle id="veh11" type="car" route="r5" depart="34.7"/>
  <vehicle id="veh12" type="bus" route="r4" depart="37.8"/>
  <vehicle id="veh13" type="scooter" route="r8" depart="40.0"/>
  <vehicle id="veh14" type="car" route="r11" depart="42.4"/>
  <vehicle id="veh15" type="car" route="r6" depart="43.2"/>
  <vehicle id="veh16" type="bus" route="r10" depart="47.8"/>
  <vehicle id="veh17" type="car" route="r0" depart="51.8"/>
  <vehicle id="veh18" type="car" route="r0" depart="56.3"/>
  <vehicle id="veh19" type="car" route="r10" depart="60.3"/>
  <vehicle id="veh20" type="car" route="r3" depart="64.4"/>
  <vehicle id="veh21" type="scooter" route="r6" depart="67.1"/>
  <vehicle id="veh22" type="car" route="r3" depart="69.4"/>
  <vehicle id="veh23" type="car" route="r1" depart="72.0"/>
  <vehicle id="veh24" type="car" route="r3" depart="76.2"/>
  <vehicle id="veh25" type="scooter" route="r8" depart="80.6"/>
  <vehicle id="veh26" type="car" route="r10" depart="81.3"/>
  <vehicle id="veh27" type="truck" route="r9" depart="82.4"/>
  <vehicle id="veh28" type="car" route="r7" depart="84.2"/>
  <vehicle id="veh29" type="truck" route="r4" depart="86.4"/>
  <vehicle id="veh30" type="car" route="r10" depart="86.9"/>
  <vehicle id="veh31" type="car" route="r7" depart="86.9"/>
  <vehicle id="veh32" type="bus" route="r4" depart="88.2"/>
  <vehicle id="veh33" type="bus" route="r1" depart="91.1"/>
  <vehicle id="veh34" type="scooter" route="r8" depart="92.6"/>
  <vehicle id="veh35" type="scooter" route="r7" depart="92.7"/>
  <vehicle id="veh36" type="car" route="r7" depart="97.5"/>
  <vehicle id="veh37" type="car" route="r6" depart="99.2"/>
  <vehicle id="veh38" type="bus" route="r3" depart="100.6"/>
  <vehicle id="veh39" type="truck" route="r3" depart="103.8"/>
  <vehicle id="veh40" type="scooter" route="r10" depart="104.4"/>
  <vehicle id="veh41" type="car" route="r4" depart="106.9"/>
  <vehicle id="veh42" type="car" route="r5" depart="107.4"/>
  <vehicle id="veh43" type="scooter" route="r5" depart="107.8"/>
  <vehicle id="veh44" type="car" route="r2" depart="108.0"/>
  <vehicle id="veh45" type="car" route="r10" depart="113.0"/>
  <vehicle id="veh46" type="car" route="r7" depart="117.1"/>
  <vehicle id="veh47" type="car" route="r11" depart="121.6"/>
  <vehicle id="veh48" type="car" route="r5" depart="121.8"/>
  <vehicle id="veh49" type="car" route="r7" depart="124.4"/>
  <vehicle id="veh50" type="truck" route="r7" depart="126.6"/>
  <vehicle id="veh51" type="bus" route="r10" depart="131.1"/>
  <vehicle id="veh52" type="scooter" route="r3" depart="131.5"/>
  <vehicle id="veh53" type="scooter" route="r8" depart="134.3"/>
  <vehicle id="veh54" type="car" route="r3" depart="136.1"/>
  <vehicle id="veh55" type="car" route="r11" depart="139.0"/>
  <vehicle id="veh56" type="bus" route="r0" depart="143.9"/>
  <vehicle id="veh57" type="car" route="r10" depart="145.2"/>
  <vehicle id="veh58" type="scooter" route="r5" depart="148.7"/>
  <vehicle id="veh59" type="bus" route="r8" depart="152.8"/>
  <vehicle id="veh60" type="bus" route="r5" depart="156.4"/>
  <vehicle id="veh61" type="car" route="r5" depart="160.9"/>
  <vehicle id="veh62" type="car" route="r4" depart="161.4"/>
  <vehicle id="veh63" type="car" route="r10" depart="163.7"/>
  <vehicle id="veh64" type="car" route="r8" depart="164.3"/>
  <vehicle id="veh65" type="car" route="r10" depart="166.4"/>
  <vehicle id="veh66" type="car" route="r1" depart="167.5"/>
  <vehicle id="veh67" type="car" route="r8" depart="171.4"/>
  <vehicle id="veh68" type="scooter" route="r3" depart="174.2"/>
  <vehicle id="veh69" type="car" route="r8" depart="175.8"/>
  <vehicle id="veh70" type="truck" route="r10" depart="179.0"/>
  <vehicle id="veh71" type="scooter" route="r7" depart="181.5"/>
  <vehicle id="veh72" type="car" route="r2" depart="183.9"/>
  <vehicle id="veh73" type="truck" route="r3" depart="187.8"/>
  <vehicle id="veh74" type="car" route="r2" depart="191.8"/>
  <vehicle id="veh75" type="scooter" route="r7" depart="192.3"/>
  <vehicle id="veh76" type="car" route="r1" depart="194.3"/>
  <vehicle id="veh77" type="bus" route="r5" depart="199.1"/>
  <vehicle id="veh78" type="bus" route="r4" depart="202.3"/>
  <vehicle id="veh79" type="scooter" route="r1" depart="205.1"/>
  <vehicle id="veh80" type="car" route="r3" depart="209.4"/>
  <vehicle id="veh81" type="car" route="r3" depart="212.7"/>
  <vehicle id="veh82" type="car" route="r2" depart="217.6"/>
  <vehicle id="veh83" type="car" route="r1" depart="219.1"/>
  <vehicle id="veh84" type="car" route="r2" depart="222.1"/>
  <vehicle id="veh85" type="bus" route="r7" depart="224.2"/>
  <vehicle id="veh86" type="scooter" route="r10" depart="227.9"/>
  <vehicle id="veh87" type="truck" route="r9" depart="231.5"/>
  <vehicle id="veh88" type="car" route="r6" depart="233.5"/>
  <vehicle id="veh89" type="car" route="r4" depart="236.2"/>
  <vehicle id="veh90" type="car" route="r5" depart="237.3"/>
  <vehicle id="veh91" type="bus" route="r10" depart="240.4"/>
  <vehicle id="veh92" type="bus" route="r1" depart="244.2"/>
  <vehicle id="veh93" type="car" route="r9" depart="244.9"/>
  <vehicle id="veh94" type="car" route="r6" depart="248.4"/>
  <vehicle id="veh95" type="car" route="r5" depart="251.8"/>
  <vehicle id="veh96" type="car" route="r7" depart="252.7"/>
  <vehicle id="veh97" type="scooter" route="r4" depart="256.2"/>
  <vehicle id="veh98" type="truck" route="r1" depart="256.8"/>
  <vehicle id="veh99" type="scooter" route="r8" depart="257.0"/>
  <vehicle id="veh100" type="car" route="r1" depart="261.9"/>
  <vehicle id="veh101" type="car" route="r0" depart="265.5"/>
  <vehicle id="veh102" type="scooter" route="r4" depart="267.4"/>
  <vehicle id="veh103" type="car" route="r11" depart="270.9"/>
  <vehicle id="veh104" type="car" route="r3" depart="273.4"/>
  <vehicle id="veh105" type="car" route="r11" depart="273.9"/>
  <vehicle id="veh106" type="car" route="r0" depart="275.1"/>
  <vehicle id="veh107" type="scooter" route="r11" depart="279.3"/>
  <vehicle id="veh108" type="car" route="r10" depart="281.7"/>
  <vehicle id="veh109" type="scooter" route="r5" depart="283.9"/>
  <vehicle id="veh110" type="scooter" route="r11" depart="286.5"/>
  <vehicle id="veh111" type="scooter" route="r0" depart="289.7"/>
  <vehicle id="veh112" type="car" route="r1" depart="294.2"/>
  <vehicle id="veh113" type="scooter" route="r9" depart="298.0"/>
  <vehicle id="veh114" type="bus" route="r2" depart="302.6"/>
  <vehicle id="veh115" type="car" route="r11" depart="304.1"/>
  <vehicle id="veh116" type="bus" route="r1" depart="305.3"/>
  <vehicle id="veh117" type="scooter" route="r8" depart="306.1"/>
  <vehicle id="veh118" type="car" route="r1" depart="307.8"/>
  <vehicle id="veh119" type="car" route="r7" depart="312.0"/>
  <vehicle id="veh120" type="truck" route="r8" depart="314.8"/>
  <vehicle id="veh121" type="car" route="r11" depart="315.8"/>
  <vehicle id="veh122" type="bus" route="r8" depart="317.1"/>
  <vehicle id="veh123" type="car" route="r11" depart="321.1"/>
  <vehicle id="veh124" type="bus" route="r10" depart="323.0"/>
  <vehicle id="veh125" type="car" route="r3" depart="326.3"/>
  <vehicle id="veh126" type="bus" route="r0" depart="327.8"/>
  <vehicle id="veh127" type="bus" route="r3" depart="332.2"/>
  <vehicle id="veh128" type="car" route="r6" depart="333.9"/>
  <vehicle id="veh129" type="scooter" route="r8" depart="338.6"/>
  <vehicle id="veh130" type="car" route="r4" depart="342.3"/>
  <vehicle id="veh131" type="bus" route="r6" depart="342.7"/>
  <vehicle id="veh132" type="car" route="r8" depart="345.5"/>
  <vehicle id="veh133" type="car" route="r3" depart="347.9"/>
  <vehicle id="veh134" type="bus" route="r10" depart="351.3"/>
  <vehicle id="veh135" type="car" route="r4" depart="352.8"/>
  <vehicle id="veh136" type="scooter" route="r11" depart="356.2"/>
  <vehicle id="veh137" type="scooter" route="r2" depart="358.3"/>
  <vehicle id="veh138" type="bus" route="r10" depart="361.8"/>
  <vehicle id="veh139" type="car" route="r7" depart="365.6"/>
  <vehicle id="veh140" type="car" route="r9" depart="370.1"/>
  <vehicle id="veh141" type="truck" route="r1" depart="373.8"/>
  <vehicle id="veh142" type="car" route="r9" depart="377.5"/>
  <vehicle id="veh143" type="truck" route="r7" depart="381.4"/>
  <vehicle id="veh144" type="car" route="r9" depart="382.2"/>
  <vehicle id="veh145" type="bus" route="r11" depart="386.0"/>
  <vehicle id="veh146" type="scooter" route="r8" depart="390.1"/>
  <vehicle id="veh147" type="bus" route="r1" depart="390.5"/>
  <vehicle id="veh148" type="car" route="r7" depart="394.8"/>
  <vehicle id="veh149" type="car" route="r8" depart="397.1"/>
  <vehicle id="veh150" type="bus" route="r7" depart="397.9"/>
  <vehicle id="veh151" type="car" route="r4" depart="399.7"/>
  <vehicle id="veh152" type="bus" route="r2" depart="400.4"/>
  <vehicle id="veh153" type="scooter" route="r6" depart="402.7"/>
  <vehicle id="veh154" type="truck" route="r9" depart="407.2"/>
  <vehicle id="veh155" type="bus" route="r11" depart="408.4"/>
  <vehicle id="veh156" type="bus" route="r7" depart="410.0"/>
  <vehicle id="veh157" type="bus" route="r11" depart="414.9"/>
  <vehicle id="veh158" type="scooter" route="r2" depart="416.4"/>
  <vehicle id="veh159" type="scooter" route="r2" depart="420.7"/>
  <vehicle id="veh160" type="bus" route="r2" depart="424.1"/>
  <vehicle id="veh161" type="scooter" route="r10" depart="427.0"/>
  <vehicle id="veh162" type="car" route="r10" depart="429.3"/>
  <vehicle id="veh163" type="truck" route="r0" depart="432.7"/>
  <vehicle id="veh164" type="scooter" route="r4" depart="437.2"/>
  <vehicle id="veh165" type="car" route="r4" depart="441.7"/>
  <vehicle id="veh166" type="truck" route="r10" depart="443.6"/>
  <vehicle id="veh167" type="bus" route="r10" depart="443.8"/>
  <vehicle id="veh168" type="car" route="r11" depart="446.1"/>
  <vehicle id="veh169" type="car" route="r3" depart="446.1"/>
  <vehicle id="veh170" type="truck" route="r3" depart="450.6"/>
  <vehicle id="veh171" type="scooter" route="r2" depart="453.3"/>
  <vehicle id="veh172" type="scooter" route="r10" depart="453.5"/>
  <vehicle id="veh173" type="car" route="r0" depart="457.7"/>
  <vehicle id="veh174" type="car" route="r9" depart="458.8"/>
  <vehicle id="veh175" type="bus" route="r1" depart="461.7"/>
  <vehicle id="veh176" type="car" route="r11" depart="466.1"/>
  <vehicle id="veh177" type="scooter" route="r8" depart="468.8"/>
  <vehicle id="veh178" type="truck" route="r4" depart="471.4"/>
  <vehicle id="veh179" type="bus" route="r0" depart="473.4"/>
  <vehicle id="veh180" type="scooter" route="r5" depart="473.8"/>
  <vehicle id="veh181" type="car" route="r3" depart="478.6"/>
  <vehicle id="veh182" type="truck" route="r1" depart="479.5"/>
  <vehicle id="veh183" type="truck" route="r7" depart="482.4"/>
  <vehicle id="veh184" type="car" route="r11" depart="483.4"/>
  <vehicle id="veh185" type="car" route="r11" depart="487.1"/>
  <vehicle id="veh186" type="scooter" route="r8" depart="490.7"/>
  <vehicle id="veh187" type="car" route="r4" depart="492.2"/>
  <vehicle id="veh188" type="car" route="r10" depart="494.2"/>
  <vehicle id="veh189" type="bus" route="r1" depart="498.4"/>
  <vehicle id="veh190" type="car" route="r0" depart="503.2"/>
  <vehicle id="veh191" type="truck" route="r0" depart="504.2"/>
  <vehicle id="veh192" type="bus" route="r1" depart="508.5"/>
  <vehicle id="veh193" type="truck" route="r0" depart="511.9"/>
  <vehicle id="veh194" type="scooter" route="r4" depart="516.5"/>
  <vehicle id="veh195" type="car" route="r11" depart="519.1"/>
  <vehicle id="veh196" type="bus" route="r11" depart="519.2"/>
  <vehicle id="veh197" type="scooter" route="r6" depart="521.8"/>
  <vehicle id="veh198" type="truck" route="r3" depart="524.7"/>
  <vehicle id="veh199" type="car" route="r7" depart="527.8"/>
  <vehicle id="veh200" type="car" route="r3" depart="530.9"/>
  <vehicle id="veh201" type="bus" route="r0" depart="533.5"/>
  <vehicle id="veh202" type="truck" route="r8" depart="534.5"/>
  <vehicle id="veh203" type="bus" route="r10" depart="539.3"/>
  <vehicle id="veh204" type="scooter" route="r6" depart="543.8"/>
  <vehicle id="veh205" type="car" route="r4" depart="545.8"/>
  <vehicle id="veh206" type="car" route="r5" depart="548.7"/>
  <vehicle id="veh207" type="scooter" route="r11" depart="553.2"/>
  <vehicle id="veh208" type="truck" route="r4" depart="555.2"/>
  <vehicle id="veh209" type="car" route="r1" depart="558.3"/>
  <vehicle id="veh210" type="car" route="r9" depart="561.8"/>
  <vehicle id="veh211" type="car" route="r2" depart="562.5"/>
  <vehicle id="veh212" type="car" route="r9" depart="566.0"/>
  <vehicle id="veh213" type="bus" route="r11" depart="566.0"/>
  <vehicle id="veh214" type="car" route="r5" depart="570.5"/>
  <vehicle id="veh215" type="car" route="r6" depart="575.3"/>
  <vehicle id="veh216" type="bus" route="r2" depart="578.3"/>
  <vehicle id="veh217" type="car" route="r7" depart="581.8"/>
  <vehicle id="veh218" type="bus" route="r5" depart="582.6"/>
  <vehicle id="veh219" type="bus" route="r7" depart="583.6"/>
  <vehicle id="veh220" type="scooter" route="r10" depart="587.3"/>
  <vehicle id="veh221" type="bus" route="r3" depart="587.3"/>
  <vehicle id="veh222" type="scooter" route="r0" depart="588.7"/>
  <vehicle id="veh223" type="truck" route="r9" depart="590.3"/>
  <vehicle id="veh224" type="car" route="r1" depart="592.4"/>
  <vehicle id="veh225" type="car" route="r0" depart="593.3"/>
  <vehicle id="veh226" type="bus" route="r10" depart="597.2"/>
  <vehicle id="veh227" type="bus" route="r9" depart="597.9"/>
  <vehicle id="veh228" type="bus" route="r4" depart="602.2"/>
  <vehicle id="veh229" type="scooter" route="r11" depart="606.5"/>
  <vehicle id="veh230" type="car" route="r10" depart="609.8"/>
  <vehicle id="veh231" type="bus" route="r7" depart="611.0"/>
  <vehicle id="veh232" type="truck" route="r5" depart="614.8"/>
  <vehicle id="veh233" type="bus" route="r11" depart="615.7"/>
  <vehicle id="veh234" type="truck" route="r4" depart="620.0"/>
  <vehicle id="veh235" type="car" route="r8" depart="624.0"/>
  <vehicle id="veh236" type="car" route="r7" depart="628.1"/>
  <vehicle id="veh237" type="bus" route="r5" depart="633.0"/>
  <vehicle id="veh238" type="scooter" route="r9" depart="637.8"/>
  <vehicle id="veh239" type="scooter" route="r4" depart="638.5"/>
  <vehicle id="veh240" type="car" route="r3" depart="639.6"/>
  <vehicle id="veh241" type="car" route="r10" depart="642.2"/>
  <vehicle id="veh242" type="scooter" route="r7" depart="646.1"/>
  <vehicle id="veh243" type="bus" route="r3" depart="650.7"/>
  <vehicle id="veh244" type="scooter" route="r10" depart="652.2"/>
  <vehicle id="veh245" type="truck" route="r11" depart="655.1"/>
  <vehicle id="veh246" type="car" route="r8" depart="656.2"/>
  <vehicle id="veh247" type="car" route="r3" depart="658.4"/>
  <vehicle id="veh248" type="car" route="r9" depart="659.4"/>
  <vehicle id="veh249" type="truck" route="r2" depart="661.6"/>
  <vehicle id="veh250" type="car" route="r4" depart="662.2"/>
  <vehicle id="veh251" type="car" route="r6" depart="664.3"/>
  <vehicle id="veh252" type="scooter" route="r9" depart="666.5"/>
  <vehicle id="veh253" type="car" route="r2" depart="667.9"/>
  <vehicle id="veh254" type="car" route="r7" depart="668.5"/>
  <vehicle id="veh255" type="bus" route="r9" depart="671.9"/>
  <vehicle id="veh256" type="bus" route="r3" depart="676.0"/>
  <vehicle id="veh257" type="car" route="r7" depart="679.1"/>
  <vehicle id="veh258" type="bus" route="r6" depart="682.3"/>
  <vehicle id="veh259" type="scooter" route="r10" depart="684.8"/>
  <vehicle id="veh260" type="bus" route="r7" depart="686.9"/>
  <vehicle id="veh261" type="truck" route="r8" depart="687.6"/>
  <vehicle id="veh262" type="truck" route="r2" depart="689.2"/>
  <vehicle id="veh263" type="car" route="r3" depart="694.0"/>
  <vehicle id="veh264" type="truck" route="r8" depart="697.1"/>
  <vehicle id="veh265" type="scooter" route="r5" depart="698.3"/>
  <vehicle id="veh266" type="scooter" route="r11" depart="703.1"/>
  <vehicle id="veh267" type="car" route="r0" depart="707.1"/>
  <vehicle id="veh268" type="bus" route="r0" depart="708.7"/>
  <vehicle id="veh269" type="car" route="r0" depart="713.1"/>
  <vehicle id="veh270" type="truck" route="r7" depart="718.1"/>
  <vehicle id="veh271" type="car" route="r6" depart="720.4"/>
  <vehicle id="veh272" type="car" route="r3" depart="723.5"/>
  <vehicle id="veh273" type="car" route="r2" depart="726.5"/>
  <vehicle id="veh274" type="car" route="r1" depart="727.6"/>
  <vehicle id="veh275" type="car" route="r8" depart="732.5"/>
  <vehicle id="veh276" type="truck" route="r10" depart="735.4"/>
  <vehicle id="veh277" type="scooter" route="r4" depart="735.6"/>
  <vehicle id="veh278" type="car" route="r6" depart="740.1"/>
  <vehicle id="veh279" type="car" route="r11" depart="742.4"/>
  <vehicle id="veh280" type="scooter" route="r11" depart="743.4"/>
  <vehicle id="veh281" type="scooter" route="r11" depart="743.7"/>
  <vehicle id="veh282" type="car" route="r10" depart="744.3"/>
  <vehicle id="veh283" type="bus" route="r4" depart="744.8"/>
  <vehicle id="veh284" type="car" route="r9" depart="746.7"/>
  <vehicle id="veh285" type="car" route="r6" depart="747.9"/>
  <vehicle id="veh286" type="car" route="r8" depart="750.5"/>
  <vehicle id="veh287" type="car" route="r1" depart="754.7"/>
  <vehicle id="veh288" type="car" route="r9" depart="755.5"/>
  <vehicle id="veh289" type="car" route="r1" depart="756.9"/>
  <vehicle id="veh290" type="car" route="r9" depart="758.7"/>
  <vehicle id="veh291" type="scooter" route="r9" depart="758.9"/>
  <vehicle id="veh292" type="car" route="r11" depart="760.0"/>
  <vehicle id="veh293" type="car" route="r5" depart="763.8"/>
  <vehicle id="veh294" type="scooter" route="r7" depart="764.0"/>
  <vehicle id="veh295" type="bus" route="r5" depart="766.7"/>
  <vehicle id="veh296" type="scooter" route="r2" depart="769.4"/>
  <vehicle id="veh297" type="car" route="r7" depart="774.3"/>
  <vehicle id="veh298" type="car" route="r1" depart="778.8"/>
  <vehicle id="veh299" type="car" route="r0" depart="782.1"/>
  <vehicle id="veh300" type="bus" route="r8" depart="783.7"/>
  <vehicle id="veh301" type="scooter" route="r2" depart="783.7"/>
  <vehicle id="veh302" type="car" route="r11" depart="788.2"/>
  <vehicle id="veh303" type="scooter" route="r6" depart="790.0"/>
  <vehicle id="veh304" type="car" route="r1" depart="792.9"/>
  <vehicle id="veh305" type="car" route="r4" depart="795.4"/>
  <vehicle id="veh306" type="car" route="r0" depart="797.1"/>
  <vehicle id="veh307" type="car" route="r10" depart="799.1"/>
  <vehicle id="veh308" type="car" route="r10" depart="803.6"/>
  <vehicle id="veh309" type="car" route="r9" depart="807.9"/>
  <vehicle id="veh310" type="car" route="r10" depart="811.1"/>
  <vehicle id="veh311" type="scooter" route="r10" depart="813.6"/>
  <vehicle id="veh312" type="scooter" route="r4" depart="814.6"/>
  <vehicle id="veh313" type="scooter" route="r1" depart="817.7"/>
  <vehicle id="veh314" type="scooter" route="r7" depart="818.5"/>
  <vehicle id="veh315" type="car" route="r4" depart="821.5"/>
  <vehicle id="veh316" type="bus" route="r0" depart="822.4"/>
  <vehicle id="veh317" type="bus" route="r3" depart="824.1"/>
  <vehicle id="veh318" type="truck" route="r6" depart="826.1"/>
  <vehicle id="veh319" type="car" route="r3" depart="828.9"/>
  <vehicle id="veh320" type="scooter" route="r3" depart="831.7"/>
  <vehicle id="veh321" type="car" route="r8" depart="832.8"/>
  <vehicle id="veh322" type="truck" route="r6" depart="837.0"/>
  <vehicle id="veh323" type="car" route="r10" depart="839.2"/>
  <vehicle id="veh324" type="car" route="r9" depart="840.9"/>
  <vehicle id="veh325" type="truck" route="r5" depart="841.7"/>
  <vehicle id="veh326" type="car" route="r10" depart="845.6"/>
  <vehicle id="veh327" type="scooter" route="r11" depart="846.0"/>
  <vehicle id="veh328" type="bus" route="r7" depart="847.4"/>
  <vehicle id="veh329" type="scooter" route="r11" depart="849.8"/>
  <vehicle id="veh330" type="car" route="r4" depart="854.0"/>
  <vehicle id="veh331" type="truck" route="r10" depart="857.2"/>
  <vehicle id="veh332" type="car" route="r7" depart="862.1"/>
  <vehicle id="veh333" type="truck" route="r1" depart="863.6"/>
  <vehicle id="veh334" type="car" route="r1" depart="868.3"/>
  <vehicle id="veh335" type="car" route="r5" depart="868.8"/>
  <vehicle id="veh336" type="scooter" route="r10" depart="868.9"/>
  <vehicle id="veh337" type="scooter" route="r3" depart="871.4"/>
  <vehicle id="veh338" type="bus" route="r2" depart="875.3"/>
  <vehicle id="veh339" type="car" route="r0" depart="876.6"/>
  <vehicle id="veh340" type="bus" route="r7" depart="878.7"/>
  <vehicle id="veh341" type="bus" route="r9" depart="881.3"/>
  <vehicle id="veh342" type="truck" route="r2" depart="881.3"/>
  <vehicle id="veh343" type="bus" route="r9" depart="882.0"/>
  <vehicle id="veh344" type="truck" route="r6" depart="882.3"/>
  <vehicle id="veh345" type="scooter" route="r7" depart="886.3"/>
  <vehicle id="veh346" type="bus" route="r0" depart="890.5"/>
  <vehicle id="veh347" type="scooter" route="r2" depart="891.2"/>
  <vehicle id="veh348" type="car" route="r5" depart="892.7"/>
  <vehicle id="veh349" type="car" route="r3" depart="894.6"/>
  <vehicle id="veh350" type="truck" route="r5" depart="895.1"/>
  <vehicle id="veh351" type="bus" route="r11" depart="899.7"/>
  <vehicle id="veh352" type="bus" route="r0" depart="904.7"/>
  <vehicle id="veh353" type="car" route="r0" depart="905.5"/>
  <vehicle id="veh354" type="bus" route="r0" depart="906.9"/>
  <vehicle id="veh355" type="car" route="r4" depart="907.4"/>
  <vehicle id="veh356" type="car" route="r9" depart="910.6"/>
  <vehicle id="veh357" type="car" route="r1" depart="914.4"/>
  <vehicle id="veh358" type="bus" route="r6" depart="914.6"/>
  <vehicle id="veh359" type="bus" route="r1" depart="916.8"/>
  <vehicle id="veh360" type="car" route="r11" depart="921.2"/>
  <vehicle id="veh361" type="car" route="r10" depart="924.6"/>
  <vehicle id="veh362" type="car" route="r2" depart="926.2"/>
  <vehicle id="veh363" type="car" route="r9" depart="929.9"/>
  <vehicle id="veh364" type="scooter" route="r8" depart="934.8"/>
  <vehicle id="veh365" type="car" route="r4" depart="939.3"/>
  <vehicle id="veh366" type="car" route="r1" depart="940.4"/>
  <vehicle id="veh367" type="car" route="r4" depart="940.5"/>
  <vehicle id="veh368" type="bus" route="r5" depart="944.2"/>
  <vehicle id="veh369" type="scooter" route="r4" depart="945.2"/>
  <vehicle id="veh370" type="truck" route="r10" depart="949.6"/>
  <vehicle id="veh371" type="bus" route="r8" depart="950.6"/>
  <vehicle id="veh372" type="scooter" route="r7" depart="953.9"/>
  <vehicle id="veh373" type="bus" route="r9" depart="958.7"/>
  <vehicle id="veh374" type="truck" route="r4" depart="963.0"/>
  <vehicle id="veh375" type="truck" route="r2" depart="963.6"/>
  <vehicle id="veh376" type="car" route="r3" depart="965.2"/>
  <vehicle id="veh377" type="car" route="r1" depart="967.0"/>
  <vehicle id="veh378" type="car" route="r7" depart="968.1"/>
  <vehicle id="veh379" type="bus" route="r8" depart="971.4"/>
  <vehicle id="veh380" type="bus" route="r2" depart="975.1"/>
  <vehicle id="veh381" type="scooter" route="r7" depart="979.8"/>
  <vehicle id="veh382" type="car" route="r9" depart="980.5"/>
  <vehicle id="veh383" type="scooter" route="r2" depart="981.1"/>
  <vehicle id="veh384" type="car" route="r11" depart="985.1"/>
  <vehicle id="veh385" type="scooter" route="r10" depart="986.4"/>
  <vehicle id="veh386" type="car" route="r11" depart="987.5"/>
  <vehicle id="veh387" type="scooter" route="r5" depart="987.9"/>
  <vehicle id="veh388" type="bus" route="r3" depart="989.2"/>
  <vehicle id="veh389" type="bus" route="r0" depart="991.5"/>
  <vehicle id="veh390" type="car" route="r8" depart="992.7"/>
  <vehicle id="veh391" type="truck" route="r7" depart="997.0"/>
  <vehicle id="veh392" type="scooter" route="r5" depart="1001.4"/>
  <vehicle id="veh393" type="car" route="r6" depart="1005.7"/>
  <vehicle id="veh394" type="scooter" route="r8" depart="1009.8"/>
  <vehicle id="veh395" type="car" route="r2" depart="1011.5"/>
  <vehicle id="veh396" type="bus" route="r7" depart="1014.6"/>
  <vehicle id="veh397" type="bus" route="r2" depart="1018.0"/>
  <vehicle id="veh398" type="car" route="r7" depart="1022.2"/>
  <vehicle id="veh399" type="scooter" route="r7" depart="1022.4"/>
  <vehicle id="veh400" type="bus" route="r11" depart="1026.9"/>
  <vehicle id="veh401" type="bus" route="r3" depart="1027.8"/>
  <vehicle id="veh402" type="scooter" route="r8" depart="1029.3"/>
  <vehicle id="veh403" type="scooter" route="r6" depart="1032.3"/>
  <vehicle id="veh404" type="scooter" route="r6" depart="1033.3"/>
  <vehicle id="veh405" type="truck" route="r10" depart="1036.5"/>
  <vehicle id="veh406" type="bus" route="r11" depart="1038.6"/>
  <vehicle id="veh407" type="truck" route="r7" depart="1038.8"/>
  <vehicle id="veh408" type="scooter" route="r9" depart="1041.6"/>
  <vehicle id="veh409" type="scooter" route="r7" depart="1045.6"/>
  <vehicle id="veh410" type="car" route="r7" depart="1050.5"/>
  <vehicle id="veh411" type="car" route="r5" depart="1051.5"/>
  <vehicle id="veh412" type="car" route="r4" depart="1054.3"/>
  <vehicle id="veh413" type="car" route="r7" depart="1056.3"/>
  <vehicle id="veh414" type="car" route="r1" depart="1059.6"/>
  <vehicle id="veh415" type="scooter" route="r2" depart="1062.9"/>
  <vehicle id="veh416" type="car" route="r10" depart="1063.0"/>
  <vehicle id="veh417" type="car" route="r1" depart="1066.5"/>
  <vehicle id="veh418" type="car" route="r11" depart="1069.4"/>
  <vehicle id="veh419" type="bus" route="r3" depart="1073.9"/>
  <vehicle id="veh420" type="truck" route="r11" depart="1076.4"/>
  <vehicle id="veh421" type="bus" route="r2" depart="1077.8"/>
  <vehicle id="veh422" type="car" route="r5" depart="1078.4"/>
  <vehicle id="veh423" type="car" route="r4" depart="1079.0"/>
  <vehicle id="veh424" type="car" route="r1" depart="1082.1"/>
  <vehicle id="veh425" type="scooter" route="r0" depart="1086.9"/>
  <vehicle id="veh426" type="bus" route="r7" depart="1090.3"/>
  <vehicle id="veh427" type="car" route="r11" depart="1092.2"/>
  <vehicle id="veh428" type="car" route="r11" depart="1092.3"/>
  <vehicle id="veh429" type="truck" route="r1" depart="1093.9"/>
  <vehicle id="veh430" type="bus" route="r11" depart="1096.1"/>
  <vehicle id="veh431" type="car" route="r9" depart="1096.6"/>
  <vehicle id="veh432" type="truck" route="r11" depart="1097.6"/>
  <vehicle id="veh433" type="car" route="r5" depart="1101.9"/>
  <vehicle id="veh434" type="car" route="r1" depart="1103.8"/>
  <vehicle id="veh435" type="scooter" route="r9" depart="1106.3"/>
  <vehicle id="veh436" type="car" route="r3" depart="1106.8"/>
  <vehicle id="veh437" type="scooter" route="r10" depart="1109.4"/>
  <vehicle id="veh438" type="car" route="r10" depart="1112.4"/>
  <vehicle id="veh439" type="bus" route="r6" depart="1114.0"/>
  <vehicle id="veh440" type="car" route="r10" depart="1115.7"/>
  <vehicle id="veh441" type="truck" route="r2" depart="1118.2"/>
  <vehicle id="veh442" type="truck" route="r10" depart="1119.6"/>
  <vehicle id="veh443" type="truck" route="r2" depart="1122.2"/>
  <vehicle id="veh444" type="scooter" route="r10" depart="1123.5"/>
  <vehicle id="veh445" type="scooter" route="r0" depart="1124.3"/>
  <vehicle id="veh446" type="truck" route="r11" depart="1127.5"/>
  <vehicle id="veh447" type="scooter" route="r10" depart="1127.6"/>
  <vehicle id="veh448" type="car" route="r3" depart="1128.0"/>
  <vehicle id="veh449" type="bus" route="r10" depart="1129.4"/>
  <vehicle id="veh450" type="car" route="r6" depart="1132.4"/>
  <vehicle id="veh451" type="car" route="r10" depart="1133.6"/>
  <vehicle id="veh452" type="bus" route="r3" depart="1137.6"/>
  <vehicle id="veh453" type="car" route="r11" depart="1138.2"/>
  <vehicle id="veh454" type="scooter" route="r0" depart="1139.2"/>
  <vehicle id="veh455" type="car" route="r0" depart="1144.1"/>
  <vehicle id="veh456" type="car" route="r6" depart="1146.8"/>
  <vehicle id="veh457" type="scooter" route="r4" depart="1151.4"/>
  <vehicle id="veh458" type="scooter" route="r2" depart="1151.5"/>
  <vehicle id="veh459" type="truck" route="r7" depart="1154.5"/>
  <vehicle id="veh460" type="scooter" route="r3" depart="1155.8"/>
  <vehicle id="veh461" type="car" route="r10" depart="1158.2"/>