<routes>
  <vType id="car" accel="1.0" decel="4.5" maxSpeed="25" length="5"/>
  <vType id="truck" accel="0.5" decel="3.0" maxSpeed="18" length="12"/>
  <vType id="bus" accel="0.8" decel="3.5" maxSpeed="20" length="10"/>
  <vType id="scooter" accel="1.5" decel="4.0" maxSpeed="30" length="2"/>
  <route id="r0" edges="-north east"/>
  <route id="r1" edges="-north south"/>
  <route id="r2" edges="-north west"/>
  <route id="r3" edges="-east north"/>
  <route id="r4" edges="-east south"/>
  <route id="r5" edges="-east west"/>
  <route id="r6" edges="-south north"/>
  <route id="r7" edges="-south east"/>
  <route id="r8" edges="-south west"/>
  <route id="r9" edges="-west north"/>
  <route id="r10" edges="-west east"/>
  <route id="r11" edges="-west south"/>
  <vehicle id="veh0" type="car" route="r7" depart="0.0"/>
  <vehicle id="veh1" type="car" route="r7" depart="2.4"/>
  <vehicle id="veh2" type="scooter" route="r8" depart="3.4"/>
  <vehicle id="veh3" type="car" route="r9" depart="6.9"/>
  <vehicle id="veh4" type="scooter" route="r6" depart="9.7"/>
  <vehicle id="veh5" type="scooter" route="r8" depart="10.4"/>
  <vehicle id="veh6" type="truck" route="r2" depart="12.4"/>
  <vehicle id="veh7" type="truck" route="r9" depart="12.8"/>
  <vehicle id="veh8" type="car" route="r5" depart="16.2"/>
  <vehicle id="veh9" type="truck" route="r5" depart="19.2"/>
  <vehicle id="veh10" type="car" route="r10" depart="20.3"/>
  <vehicle id="veh11" type="car" route="r11" depart="24.6"/>
  <vehicle id="veh12" type="bus" route="r11" depart="28.0"/>
  <vehicle id="veh13" type="car" route="r1" depart="30.3"/>
  <vehicle id="veh14" type="car" route="r11" depart="31.6"/>
  <vehicle id="veh15" type="scooter" route="r9" depart="34.5"/>
  <vehicle id="veh16" type="car" route="r6" depart="36.5"/>
  <vehicle id="veh17" type="truck" route="r11" depart="38.5"/>
  <vehicle id="veh18" type="scooter" route="r11" depart="43.1"/>
  <vehicle id="veh19" type="scooter" route="r10" depart="43.4"/>
  <vehicle id="veh20" type="bus" route="r9" depart="45.3"/>
  <vehicle id="veh21" type="car" route="r2" depart="49.8"/>
  <vehicle id="veh22" type="scooter" route="r9" depart="53.2"/>
  <vehicle id="veh23" type="car" route="r0" depart="54.7"/>
  <vehicle id="veh24" type="scooter" route="r9" depart="55.6"/>
  <vehicle id="veh25" type="bus" route="r11" depart="55.7"/>
  <vehicle id="veh26" type="car" route="r8" depart="58.0"/>
  <vehicle id="veh27" type="car" route="r2" depart="61.4"/>
  <vehicle id="veh28" type="car" route="r4" depart="61.5"/>
  <vehicle id="veh29" type="scooter" route="r0" depart="63.9"/>
  <vehicle id="veh30" type="car" route="r9" depart="65.7"/>
  <vehicle id="veh31" type="car" route="r3" depart="70.1"/>
  <vehicle id="veh32" type="car" route="r6" depart="72.5"/>
  <vehicle id="veh33" type="car" route="r3" depart="76.5"/>
  <vehicle id="veh34" type="bus" route="r9" depart="77.3"/>
  <vehicle id="veh35" type="truck" route="r11" depart="78.0"/>
  <vehicle id="veh36" type="car" route="r9" depart="81.1"/>
  <vehicle id="veh37" type="car" route="r6" depart="86.0"/>
  <vehicle id="veh38" type="car" route="r1" depart="89.3"/>
  <vehicle id="veh39" type="truck" route="r9" depart="93.7"/>
  <vehicle id="veh40" type="car" route="r5" depart="97.9"/>
  <vehicle id="veh41" type="scooter" route="r11" depart="102.4"/>
  <vehicle id="veh42" type="car" route="r11" depart="104.8"/>
  <vehicle id="veh43" type="bus" route="r8" depart="107.1"/>
  <vehicle id="veh44" type="car" route="r8" depart="110.0"/>
  <vehicle id="veh45" type="car" route="r7" depart="111.0"/>
  <vehicle id="veh46" type="truck" route="r9" depart="115.9"/>
  <vehicle id="veh47" type="car" route="r10" depart="118.5"/>
  <vehicle id="veh48" type="car" route="r4" depart="122.0"/>
  <vehicle id="veh49" type="scooter" route="r9" depart="124.6"/>
  <vehicle id="veh50" type="car" route="r7" depart="129.4"/>
  <vehicle id="veh51" type="scooter" route="r9" depart="133.1"/>
  <vehicle id="veh52" type="scooter" route="r0" depart="133.9"/>
  <vehicle id="veh53" type="bus" route="r6" depart="137.8"/>
  <vehicle id="veh54" type="bus" route="r5" depart="142.0"/>
  <vehicle id="veh55" type="car" route="r4" depart="144.5"/>
  <vehicle id="veh56" type="car" route="r2" depart="146.5"/>
  <vehicle id="veh57" type="car" route="r7" depart="150.6"/>
  <vehicle id="veh58" type="scooter" route="r7" depart="151.4"/>
  <vehicle id="veh59" type="scooter" route="r6" depart="154.1"/>
  <vehicle id="veh60" type="car" route="r1" depart="155.2"/>
  <vehicle id="veh61" type="car" route="r10" depart="155.8"/>
  <vehicle id="veh62" type="car" route="r10" depart="159.6"/>
  <vehicle id="veh63" type="car" route="r6" depart="164.3"/>
  <vehicle id="veh64" type="truck" route="r1" depart="166.3"/>
  <vehicle id="veh65" type="truck" route="r10" depart="166.5"/>
  <vehicle id="veh66" type="car" route="r5" depart="169.5"/>
  <vehicle id="veh67" type="car" route="r5" depart="174.0"/>
  <vehicle id="veh68" type="scooter" route="r6" depart="174.8"/>
  <vehicle id="veh69" type="car" route="r1" depart="179.7"/>
  <vehicle id="veh70" type="car" route="r2" depart="179.7"/>
  <vehicle id="veh71" type="bus" route="r1" depart="181.9"/>
  <vehicle id="veh72" type="bus" route="r9" depart="184.9"/>
  <vehicle id="veh73" type="scooter" route="r6" depart="186.6"/>
  <vehicle id="veh74" type="truck" route="r10" depart="189.2"/>
  <vehicle id="veh75" type="car" route="r9" depart="192.6"/>
  <vehicle id="veh76" type="car" route="r5" depart="195.8"/>
  <vehicle id="veh77" type="scooter" route="r10" depart="198.8"/>
  <vehicle id="veh78" type="scooter" route="r0" depart="202.2"/>
  <vehicle id="veh79" type="scooter" route="r7" depart="207.1"/>
  <vehicle id="veh80" type="bus" route="r2" depart="210.7"/>
  <vehicle id="veh81" type="car" route="r9" depart="214.8"/>
  <vehicle id="veh82" type="bus" route="r9" depart="219.4"/>
  <vehicle id="veh83" type="bus" route="r0" depart="222.6"/>
  <vehicle id="veh84" type="bus" route="r6" depart="226.7"/>
  <vehicle id="veh85" type="car" route="r6" depart="230.7"/>
  <vehicle id="veh86" type="car" route="r2" depart="235.5"/>
  <vehicle id="veh87" type="bus" route="r5" depart="239.0"/>
  <vehicle id="veh88" type="car" route="r1" depart="242.8"/>
  <vehicle id="veh89" type="scooter" route="r10" depart="246.2"/>
  <vehicle id="veh90" type="car" route="r5" depart="246.3"/>
  <vehicle id="veh91" type="car" route="r2" depart="249.3"/>
  <vehicle id="veh92" type="bus" route="r9" depart="250.6"/>
  <vehicle id="veh93" type="bus" route="r7" depart="255.3"/>
  <vehicle id="veh94" type="car" route="r0" depart="259.0"/>
  <vehicle id="veh95" type="car" route="r11" depart="263.2"/>
  <vehicle id="veh96" type="bus" route="r8" depart="263.8"/>
  <vehicle id="veh97" type="car" route="r6" depart="264.6"/>
  <vehicle id="veh98" type="scooter" route="r4" depart="265.8"/>
  <vehicle id="veh99" type="scooter" route="r1" depart="269.3"/>
  <vehicle id="veh100" type="scooter" route="r8" depart="274.2"/>
  <vehicle id="veh101" type="truck" route="r1" depart="274.6"/>
  <vehicle id="veh102" type="scooter" route="r5" depart="275.8"/>
  <vehicle id="veh103" type="truck" route="r1" depart="280.2"/>
  <vehicle id="veh104" type="truck" route="r4" depart="281.5"/>
  <vehicle id="veh105" type="bus" route="r10" depart="282.0"/>
  <vehicle id="veh106" type="scooter" route="r3" depart="285.1"/>
  <vehicle id="veh107" type="car" route="r8" depart="285.2"/>
  <vehicle id="veh108" type="car" route="r9" depart="287.3"/>
  <vehicle id="veh109" type="car" route="r7" depart="289.3"/>
  <vehicle id="veh110" type="scooter" route="r2" depart="291.5"/>
  <vehicle id="veh111" type="car" route="r2" depart="294.0"/>
  <vehicle id="veh112" type="car" route="r1" depart="294.4"/>
  <vehicle id="veh113" type="car" route="r3" depart="297.5"/>
  <vehicle id="veh114" type="scooter" route="r5" depart="297.9"/>
  <vehicle id="veh115" type="car" route="r1" depart="298.6"/>
  <vehicle id="veh116" type="scooter" route="r11" depart="299.1"/>
  <vehicle id="veh117" type="scooter" route="r2" depart="301.1"/>
  <vehicle id="veh118" type="bus" route="r4" depart="301.8"/>
  <vehicle id="veh119" type="bus" route="r4" depart="306.0"/>
  <vehicle id="veh120" type="truck" route="r9" depart="310.7"/>
  <vehicle id="veh121" type="scooter" route="r5" depart="310.8"/>
  <vehicle id="veh122" type="car" route="r4" depart="311.8"/>
  <vehicle id="veh123" type="car" route="r1" depart="316.0"/>
  <vehicle id="veh124" type="scooter" route="r2" depart="317.6"/>
  <vehicle id="veh125" type="scooter" route="r1" depart="319.0"/>
  <vehicle id="veh126" type="bus" route="r10" depart="320.1"/>
  <vehicle id="veh127" type="car" route="r10" depart="324.9"/>
  <vehicle id="veh128" type="car" route="r5" depart="328.8"/>
  <vehicle id="veh129" type="car" route="r1" depart="333.3"/>
  <vehicle id="veh130" type="car" route="r11" depart="336.1"/>
  <vehicle id="veh131" type="car" route="r4" depart="336.6"/>
  <vehicle id="veh132" type="car" route="r0" depart="338.4"/>
  <vehicle id="veh133" type="car" route="r10" depart="339.4"/>
  <vehicle id="veh134" type="car" route="r5" depart="343.4"/>
  <vehicle id="veh135" type="car" route="r6" depart="345.4"/>
  <vehicle id="veh136" type="car" route="r10" depart="348.9"/>
  <vehicle id="veh137" type="car" route="r8" depart="353.1"/>
  <vehicle id="veh138" type="scooter" route="r11" depart="354.1"/>
  <vehicle id="veh139" type="car" route="r10" depart="355.2"/>
  <vehicle id="veh140" type="car" route="r9" depart="356.9"/>
  <vehicle id="veh141" type="car" route="r2" depart="360.7"/>
  <vehicle id="veh142" type="scooter" route="r10" depart="361.9"/>
  <vehicle id="veh143" type="car" route="r11" depart="363.7"/>
  <vehicle id="veh144" type="bus" route="r5" depart="365.7"/>
  <vehicle id="veh145" type="car" route="r5" depart="369.6"/>
  <vehicle id="veh146" type="scooter" route="r4" depart="373.9"/>
  <vehicle id="veh147" type="bus" route="r8" depart="378.1"/>
  <vehicle id="veh148" type="bus" route="r6" depart="379.3"/>
  <vehicle id="veh149" type="car" route="r8" depart="383.1"/>
  <vehicle id="veh150" type="bus" route="r3" depart="386.4"/>
  <vehicle id="veh151" type="scooter" route="r2" depart="387.1"/>
  <vehicle id="veh152" type="car" route="r5" depart="391.4"/>
  <vehicle id="veh153" type="scooter" route="r4" depart="391.6"/>
  <vehicle id="veh154" type="bus" route="r9" depart="395.7"/>
  <vehicle id="veh155" type="car" route="r0" depart="396.2"/>
  <vehicle id="veh156" type="truck" route="r11" depart="399.3"/>
  <vehicle id="veh157" type="car" route="r3" depart="402.0"/>
  <vehicle id="veh158" type="car" route="r7" depart="404.9"/>
  <vehicle id="veh159" type="bus" route="r11" depart="405.0"/>
  <vehicle id="veh160" type="bus" route="r10" depart="408.3"/>
  <vehicle id="veh161" type="bus" route="r4" depart="412.8"/>
  <vehicle id="veh162" type="truck" route="r4" depart="415.4"/>
  <vehicle id="veh163" type="car" route="r2" depart="417.9"/>
  <vehicle id="veh164" type="scooter" route="r1" depart="422.6"/>
  <vehicle id="veh165" type="car" route="r1" depart="427.2"/>
  <vehicle id="veh166" type="scooter" route="r2" depart="430.7"/>
  <vehicle id="veh167" type="truck" route="r0" depart="433.9"/>
  <vehicle id="veh168" type="bus" route="r6" depart="437.1"/>
  <vehicle id="veh169" type="scooter" route="r0" depart="438.1"/>
  <vehicle id="veh170" type="bus" route="r1" depart="440.3"/>
  <vehicle id="veh171" type="bus" route="r2" depart="441.9"/>
  <vehicle id="veh172" type="car" route="r1" depart="442.9"/>
  <vehicle id="veh173" type="car" route="r9" depart="443.1"/>
  <vehicle id="veh174" type="car" route="r11" depart="445.0"/>
  <vehicle id="veh175" type="bus" route="r10" depart="448.0"/>
  <vehicle id="veh176" type="scooter" route="r0" depart="451.7"/>
  <vehicle id="veh177" type="scooter" route="r0" depart="454.3"/>
  <vehicle id="veh178" type="car" route="r9" depart="454.9"/>
  <vehicle id="veh179" type="car" route="r2" depart="456.9"/>
  <vehicle id="veh180" type="scooter" route="r2" depart="457.5"/>
  <vehicle id="veh181" type="car" route="r5" depart="460.2"/>
  <vehicle id="veh182" type="car" route="r3" depart="463.9"/>
  <vehicle id="veh183" type="scooter" route="r6" depart="468.9"/>
  <vehicle id="veh184" type="car" route="r4" depart="469.5"/>
  <vehicle id="veh185" type="car" route="r9" depart="470.3"/>
  <vehicle id="veh186" type="scooter" route="r11" depart="470.4"/>
  <vehicle id="veh187" type="scooter" route="r0" depart="473.3"/>
  <vehicle id="veh188" type="scooter" route="r11" depart="477.7"/>
  <vehicle id="veh189" type="truck" route="r10" depart="480.9"/>
  <vehicle id="veh190" type="scooter" route="r6" depart="482.3"/>
  <vehicle id="veh191" type="car" route="r2" depart="484.8"/>
  <vehicle id="veh192" type="truck" route="r0" depart="488.1"/>
  <vehicle id="veh193" type="car" route="r1" depart="490.2"/>
  <vehicle id="veh194" type="scooter" route="r9" depart="490.2"/>
  <vehicle id="veh195" type="car" route="r2" depart="491.9"/>
  <vehicle id="veh196" type="scooter" route="r7" depart="495.6"/>
  <vehicle id="veh197" type="car" route="r11" depart="499.2"/>
  <vehicle id="veh198" type="car" route="r8" depart="502.0"/>
  <vehicle id="veh199" type="bus" route="r9" depart="506.8"/>
  <vehicle id="veh200" type="scooter" route="r5" depart="509.1"/>
  <vehicle id="veh201" type="car" route="r1" depart="509.7"/>
  <vehicle id="veh202" type="scooter" route="r11" depart="511.1"/>
  <vehicle id="veh203" type="truck" route="r6" depart="513.2"/>
  <vehicle id="veh204" type="car" route="r4" depart="514.9"/>
  <vehicle id="veh205" type="car" route="r10" depart="519.1"/>
  <vehicle id="veh206" type="car" route="r8" depart="520.9"/>
  <vehicle id="veh207" type="car" route="r0" depart="521.8"/>
  <vehicle id="veh208" type="scooter" route="r9" depart="525.6"/>
  <vehicle id="veh209" type="car" route="r4" depart="527.8"/>
  <vehicle id="veh210" type="car" route="r3" depart="530.4"/>
  <vehicle id="veh211" type="bus" route="r8" depart="532.5"/>
  <vehicle id="veh212" type="car" route="r10" depart="535.5"/>
  <vehicle id="veh213" type="car" route="r1" depart="538.9"/>
  <vehicle id="veh214" type="car" route="r11" depart="540.9"/>
  <vehicle id="veh215" type="car" route="r1" depart="542.7"/>
  <vehicle id="veh216" type="car" route="r7" depart="546.6"/>
  <vehicle id="veh217" type="car" route="r1" depart="546.9"/>
  <vehicle id="veh218" type="car" route="r1" depart="549.0"/>
  <vehicle id="veh219" type="car" route="r4" depart="550.0"/>
  <vehicle id="veh220" type="car" route="r4" depart="550.6"/>
  <vehicle id="veh221" type="car" route="r8" depart="554.0"/>
  <vehicle id="veh222" type="bus" route="r10" depart="554.1"/>
  <vehicle id="veh223" type="scooter" route="r5" depart="557.2"/>
  <vehicle id="veh224" type="scooter" route="r5" depart="559.5"/>
  <vehicle id="veh225" type="car" route="r1" depart="559.7"/>
  <vehicle id="veh226" type="car" route="r8" depart="562.1"/>
  <vehicle id="veh227" type="car" route="r1" depart="564.0"/>
  <vehicle id="veh228" type="car" route="r4" depart="566.8"/>
  <vehicle id="veh229" type="car" route="r2" depart="568.8"/>
  <vehicle id="veh230" type="bus" route="r3" depart="571.1"/>
  <vehicle id="veh231" type="truck" route="r1" depart="572.3"/>
  <vehicle id="veh232" type="bus" route="r1" depart="576.4"/>
  <vehicle id="veh233" type="car" route="r2" depart="577.5"/>
  <vehicle id="veh234" type="truck" route="r2" depart="580.8"/>
  <vehicle id="veh235" type="car" route="r6" depart="584.4"/>
  <vehicle id="veh236" type="scooter" route="r4" depart="587.2"/>
  <vehicle id="veh237" type="car" route="r5" depart="587.6"/>
  <vehicle id="veh238" type="car" route="r1" depart="591.6"/>
  <vehicle id="veh239" type="scooter" route="r4" depart="596.0"/>
  <vehicle id="veh240" type="car" route="r10" depart="599.5"/>
  <vehicle id="veh241" type="car" route="r6" depart="602.9"/>
  <vehicle id="veh242" type="scooter" route="r3" depart="603.2"/>
  <vehicle id="veh243" type="scooter" route="r7" depart="607.9"/>
  <vehicle id="veh244" type="bus" route="r3" depart="608.0"/>
  <vehicle id="veh245" type="car" route="r7" depart="611.9"/>
  <vehicle id="veh246" type="car" route="r10" depart="615.5"/>
  <vehicle id="veh247" type="car" route="r3" depart="617.1"/>
  <vehicle id="veh248" type="truck" route="r10" depart="619.4"/>
  <vehicle id="veh249" type="bus" route="r8" depart="620.2"/>
  <vehicle id="veh250" type="truck" route="r2" depart="622.3"/>
  <vehicle id="veh251" type="truck" route="r5" depart="626.4"/>
  <vehicle id="veh252" type="car" route="r8" depart="628.1"/>
  <vehicle id="veh253" type="car" route="r4" depart="631.8"/>
  <vehicle id="veh254" type="scooter" route="r3" depart="636.1"/>
  <vehicle id="veh255" type="car" route="r6" depart="638.8"/>
  <vehicle id="veh256" type="bus" route="r5" depart="640.3"/>
  <vehicle id="veh257" type="truck" route="r11" depart="642.7"/>
  <vehicle id="veh258" type="bus" route="r8" depart="644.0"/>
  <vehicle id="veh259" type="truck" route="r4" depart="648.7"/>
  <vehicle id="veh260" type="scooter" route="r1" depart="651.6"/>
  <vehicle id="veh261" type="truck" route="r11" depart="653.9"/>
  <vehicle id="veh262" type="car" route="r9" depart="656.4"/>
  <vehicle id="veh263" type="car" route="r1" depart="659.5"/>
  <vehicle id="veh264" type="bus" route="r1" depart="660.7"/>
  <vehicle id="veh265" type="car" route="r9" depart="665.4"/>
  <vehicle id="veh266" type="scooter" route="r0" depart="670.3"/>
  <vehicle id="veh267" type="car" route="r0" depart="670.6"/>
  <vehicle id="veh268" type="truck" route="r9" depart="672.6"/>
  <vehicle id="veh269" type="car" route="r0" depart="675.9"/>
  <vehicle id="veh270" type="bus" route="r6" depart="679.1"/>
  <vehicle id="veh271" type="car" route="r1" depart="682.9"/>
  <vehicle id="veh272" type="car" route="r0" depart="685.6"/>
  <vehicle id="veh273" type="car" route="r2" depart="688.8"/>
  <vehicle id="veh274" type="car" route="r6" depart="692.1"/>
  <vehicle id="veh275" type="car" route="r3" depart="694.8"/>
  <vehicle id="veh276" type="bus" route="r4" depart="699.2"/>
  <vehicle id="veh277" type="car" route="r11" depart="702.5"/>
  <vehicle id="veh278" type="scooter" route="r2" depart="705.9"/>
  <vehicle id="veh279" type="bus" route="r5" depart="707.2"/>
  <vehicle id="veh280" type="car" route="r3" depart="708.6"/>
  <vehicle id="veh281" type="bus" route="r1" depart="709.9"/>
  <vehicle id="veh282" type="car" route="r8" depart="714.9"/>
  <vehicle id="veh283" type="truck" route="r10" depart="717.3"/>
  <vehicle id="veh284" type="scooter" route="r10" depart="721.0"/>
  <vehicle id="veh285" type="car" route="r2" depart="723.3"/>
  <vehicle id="veh286" type="car" route="r4" depart="725.5"/>
  <vehicle id="veh287" type="scooter" route="r5" depart="728.5"/>
  <vehicle id="veh288" type="bus" route="r9" depart="733.3"/>
  <vehicle id="veh289" type="car" route="r11" depart="736.4"/>
  <vehicle id="veh290" type="scooter" route="r0" depart="736.7"/>
  <vehicle id="veh291" type="bus" route="r1" depart="740.9"/>
  <vehicle id="veh292" type="bus" route="r9" depart="743.3"/>
  <vehicle id="veh293" type="car" route="r5" depart="746.1"/>
  <vehicle id="veh294" type="bus" route="r6" depart="748.3"/>
  <vehicle id="veh295" type="bus" route="r3" depart="752.9"/>
  <vehicle id="veh296" type="truck" route="r10" depart="752.9"/>
  <vehicle id="veh297" type="car" route="r6" depart="755.4"/>
  <vehicle id="veh298" type="bus" route="r4" depart="759.4"/>
  <vehicle id="veh299" type="truck" route="r6" depart="762.1"/>
  <vehicle id="veh300" type="bus" route="r11" depart="762.6"/>
  <vehicle id="veh301" type="car" route="r8" depart="764.2"/>
  <vehicle id="veh302" type="truck" route="r7" depart="765.4"/>
  <vehicle id="veh303" type="truck" route="r5" depart="769.3"/>
  <vehicle id="veh304" type="bus" route="r8" depart="769.7"/>
  <vehicle id="veh305" type="car" route="r3" depart="770.0"/>
  <vehicle id="veh306" type="bus" route="r2" depart="770.4"/>
  <vehicle id="veh307" type="car" route="r0" depart="771.8"/>
  <vehicle id="veh308" type="car" route="r9" depart="774.0"/>
  <vehicle id="veh309" type="car" route="r8" depart="778.1"/>
  <vehicle id="veh310" type="scooter" route="r3" depart="783.0"/>
  <vehicle id="veh311" type="scooter" route="r0" depart="787.6"/>
  <vehicle id="veh312" type="car" route="r4" depart="788.8"/>
  <vehicle id="veh313" type="car" route="r10" depart="791.6"/>
  <vehicle id="veh314" type="car" route="r6" depart="792.5"/>
  <vehicle id="veh315" type="bus" route="r4" depart="795.8"/>
  <vehicle id="veh316" type="bus" route="r0" depart="797.8"/>
  <vehicle id="veh317" type="bus" route="r8" depart="800.3"/>
  <vehicle id="veh318" type="bus" route="r9" depart="802.5"/>
  <vehicle id="veh319" type="car" route="r8" depart="806.8"/>
  <vehicle id="veh320" type="scooter" route="r10" depart="809.6"/>
  <vehicle id="veh321" type="car" route="r11" depart="812.2"/>
  <vehicle id="veh322" type="scooter" route="r2" depart="813.8"/>
  <vehicle id="veh323" type="car" route="r10" depart="814.1"/>
  <vehicle id="veh324" type="scooter" route="r2" depart="818.2"/>
  <vehicle id="veh325" type="bus" route="r9" depart="820.4"/>
  <vehicle id="veh326" type="bus" route="r1" depart="822.3"/>
  <vehicle id="veh327" type="scooter" route="r10" depart="826.1"/>
  <vehicle id="veh328" type="bus" route="r0" depart="826.6"/>
  <vehicle id="veh329" type="car" route="r9" depart="829.9"/>
  <vehicle id="veh330" type="car" route="r9" depart="834.2"/>
  <vehicle id="veh331" type="scooter" route="r2" depart="837.8"/>
  <vehicle id="veh332" type="car" route="r9" depart="840.5"/>
  <vehicle id="veh333" type="bus" route="r11" depart="844.4"/>
  <vehicle id="veh334" type="car" route="r9" depart="845.8"/>
  <vehicle id="veh335" type="truck" route="r10" depart="849.2"/>
  <vehicle id="veh336" type="car" route="r9" depart="852.8"/>
  <vehicle id="veh337" type="bus" route="r2" depart="857.5"/>
  <vehicle id="veh338" type="car" route="r1" depart="861.3"/>
  <vehicle id="veh339" type="car" route="r3" depart="863.9"/>
  <vehicle id="veh340" type="car" route="r11" depart="864.9"/>
  <vehicle id="veh341" type="bus" route="r5" depart="868.0"/>
  <vehicle id="veh342" type="car" route="r0" depart="870.9"/>
  <vehicle id="veh343" type="car" route="r2" depart="875.5"/>
  <vehicle id="veh344" type="bus" route="r3" depart="877.4"/>
  <vehicle id="veh345" type="scooter" route="r1" depart="879.2"/>
  <vehicle id="veh346" type="car" route="r1" depart="879.5"/>
  <vehicle id="veh347" type="car" route="r3" depart="880.6"/>
  <vehicle id="veh348" type="bus" route="r4" depart="882.8"/>
  <vehicle id="veh349" type="car" route="r9" depart="887.6"/>
  <vehicle id="veh350" type="car" route="r10" depart="890.3"/>
  <vehicle id="veh351" type="scooter" route="r10" depart="894.1"/>
  <vehicle id="veh352" type="scooter" route="r6" depart="897.4"/>
  <vehicle id="veh353" type="bus" route="r0" depart="898.7"/>
  <vehicle id="veh354" type="bus" route="r11" depart="903.2"/>
  <vehicle id="veh355" type="car" route="r0" depart="903.7"/>
  <vehicle id="veh356" type="car" route="r8" depart="906.9"/>
  <vehicle id="veh357" type="car" route="r0" depart="909.8"/>
  <vehicle id="veh358" type="bus" route="r2" depart="910.6"/>
  <vehicle id="veh359" type="bus" route="r8" depart="915.4"/>
  <vehicle id="veh360" type="car" route="r6" depart="917.7"/>
  <vehicle id="veh361" type="car" route="r9" depart="917.9"/>
  <vehicle id="veh362" type="scooter" route="r4" depart="922.5"/>
  <vehicle id="veh363" type="scooter" route="r11" depart="925.5"/>
  <vehicle id="veh364" type="bus" route="r9" depart="928.7"/>
  <vehicle id="veh365" type="scooter" route="r8" depart="931.9"/>
  <vehicle id="veh366" type="car" route="r11" depart="933.0"/>
  <vehicle id="veh367" type="car" route="r6" depart="933.9"/>
  <vehicle id="veh368" type="scooter" route="r2" depart="937.0"/>
  <vehicle id="veh369" type="bus" route="r2" depart="940.4"/>
  <vehicle id="veh370" type="scooter" route="r7" depart="942.9"/>
  <vehicle id="veh371" type="car" route="r9" depart="946.4"/>
  <vehicle id="veh372" type="scooter" route="r0" depart="948.7"/>
  <vehicle id="veh373" type="car" route="r0" depart="952.9"/>
  <vehicle id="veh374" type="scooter" route="r0" depart="957.0"/>
  <vehicle id="veh375" type="scooter" route="r9" depart="961.5"/>
  <vehicle id="veh376" type="truck" route="r0" depart="965.1"/>
  <vehicle id="veh377" type="bus" route="r5" depart="967.8"/>
  <vehicle id="veh378" type="bus" route="r9" depart="972.6"/>
  <vehicle id="veh379" type="scooter" route="r10" depart="972.6"/>
  <vehicle id="veh380" type="truck" route="r10" depart="975.1"/>
  <vehicle id="veh381" type="truck" route="r7" depart="978.2"/>
  <vehicle id="veh382" type="car" route="r6" depart="980.2"/>
  <vehicle id="veh383" type="car" route="r7" depart="983.4"/>
  <vehicle id="veh384" type="bus" route="r0" depart="984.8"/>
  <vehicle id="veh385" type="scooter" route="r6" depart="988.9"/>
  <vehicle id="veh386" type="car" route="r6" depart="992.3"/>
  <vehicle id="veh387" type="scooter" route="r1" depart="995.6"/>
  <vehicle id="veh388" type="car" route="r2" depart="996.9"/>
  <vehicle id="veh389" type="scooter" route="r3" depart="1001.9"/>
  <vehicle id="veh390" type="scooter" route="r10" depart="1004.8"/>
  <vehicle id="veh391" type="scooter" route="r9" depart="1007.1"/>
  <vehicle id="veh392" type="car" route="r4" depart="1007.7"/>
  <vehicle id="veh393" type="car" route="r2" depart="1010.7"/>
  <vehicle id="veh394" type="scooter" route="r11" depart="1015.1"/>
  <vehicle id="veh395" type="truck" route="r5" depart="1019.0"/>
  <vehicle id="veh396" type="car" route="r11" depart="1021.2"/>
  <vehicle id="veh397" type="car" route="r0" depart="1022.9"/>
  <vehicle id="veh398" type="bus" route="r0" depart="1025.6"/>
  <vehicle id="veh399" type="scooter" route="r0" depart="1028.7"/>
  <vehicle id="veh400" type="scooter" route="r11" depart="1032.0"/>
  <vehicle id="veh401" type="bus" route="r0" depart="1035.6"/>
  <vehicle id="veh402" type="car" route="r8" depart="1039.8"/>
  <vehicle id="veh403" type="truck" route="r9" depart="1044.5"/>
  <vehicle id="veh404" type="car" route="r10" depart="1046.0"/>
  <vehicle id="veh405" type="car" route="r7" depart="1048.0"/>
  <vehicle id="veh406" type="scooter" route="r2" depart="1048.6"/>
  <vehicle id="veh407" type="bus" route="r8" depart="1050.1"/>
  <vehicle id="veh408" type="scooter" route="r1" depart="1052.9"/>
  <vehicle id="veh409" type="scooter" route="r11" depart="1057.7"/>
  <vehicle id="veh410" type="scooter" route="r11" depart="1062.4"/>
  <vehicle id="veh411" type="scooter" route="r2" depart="1063.7"/>
  <vehicle id="veh412" type="car" route="r3" depart="1064.5"/>
  <vehicle id="veh413" type="bus" route="r1" depart="1065.9"/>
  <vehicle id="veh414" type="car" route="r8" depart="1068.9"/>
  <vehicle id="veh415" type="car" route="r7" depart="1070.6"/>
  <vehicle id="veh416" type="bus" route="r1" depart="1071.1"/>
  <vehicle id="veh417" type="bus" route="r2" depart="1075.3"/>
  <vehicle id="veh418" type="bus" route="r3" depart="1075.7"/>
  <vehicle id="veh419" type="car" route="r11" depart="1076.8"/>
  <vehicle id="veh420" type="scooter" route="r9" depart="1080.9"/>
  <vehicle id="veh421" type="bus" route="r7" depart="1083.5"/>
  <vehicle id="veh422" type="car" route="r11" depart="1085.0"/>
  <vehicle id="veh423" type="scooter" route="r4" depart="1085.3"/>
  <vehicle id="veh424" type="car" route="r2" depart="1087.0"/>
  <vehicle id="veh425" type="car" route="r1" depart="1088.6"/>
  <vehicle id="veh426" type="car" route="r11" depart="1091.0"/>
  <vehicle id="veh427" type="car" route="r0" depart="1091.3"/>
  <vehicle id="veh428" type="bus" route="r1" depart="1096.2"/>
  <vehicle id="veh429" type="car" route="r3" depart="1097.6"/>
  <vehicle id="veh430" type="bus" route="r5" depart="1098.4"/>
  <vehicle id="veh431" type="car" route="r0" depart="1102.8"/>
  <vehicle id="veh432" type="car" route="r2" depart="1104.1"/>
  <vehicle id="veh433" type="scooter" route="r4" depart="1106.1"/>
  <vehicle id="veh434" type="scooter" route="r3" depart="1108.2"/>
  <vehicle id="veh435" type="bus" route="r6" depart="1109.1"/>
  <vehicle id="veh436" type="bus" route="r4" depart="1112.4"/>
  <vehicle id="veh437" type="car" route="r0" depart="1114.3"/>
  <vehicle id="veh438" type="car" route="r2" depart="1116.2"/>
  <vehicle id="veh439" type="car" route="r6" depart="1118.7"/>
  <vehicle id="veh440" type="bus" route="r11" depart="1122.3"/>
  <vehicle id="veh441" type="bus" route="r8" depart="1126.6"/>
  <vehicle id="veh442" type="car" route="r9" depart="1131.2"/>
  <vehicle id="veh443" type="scooter" route="r6" depart="1133.6"/>
  <vehicle id="veh444" type="car" route="r3" depart="1135.9"/>
  <vehicle id="veh445" type="scooter" route="r5" depart="1137.3"/>
  <vehicle id="veh446" type="bus" route="r8" depart="1138.1"/>
  <vehicle id="veh447" type="car" route="r2" depart="1142.7"/>
  <vehicle id="veh448" type="car" route="r10" depart="1142.8"/>
  <vehicle id="veh449" type="car" route="r2" depart="1145.4"/>
  <vehicle id="veh450" type="scooter" route="r3" depart="1150.4"/>
  <vehicle id="veh451" type="car" route="r2" depart="1152.5"/>
  <vehicle id="veh452" type="scooter" route="r6" depart="1156.3"/>
  <vehicle id="veh453" type="car" route="r2" depart="1161.0"/>
  <vehicle id="veh454" type="scooter" route="r6" depart="1162.0"/>
  <vehicle id="veh455" type="car" route="r0" depart="1164.7"/>
  <vehicle id="veh456" type="bus" route="r3" depart="1167.3"/>
  <vehicle id="veh457" type="bus" route="r0" depart="1168.9"/>
  <vehicle id="veh458" type="car" route="r8" depart="1171.2"/>
  <vehicle id="veh459" type="car" route="r5" depart="1171.3"/>
  <vehicle id="veh460" type="scooter" route="r9" depart="1173.5"/>
  <vehicle id="veh461" type="scooter" route="r5" depart="1174.2"/>
  <vehicle id="veh462" type="scooter" route="r1" depart="1174.5"/>